*==============================================
*Copyright (c) 1997 MicroCode Engineering, Inc.
*All Rights Reserved
*==============================================

*==============================================
*NPN Trans Pinout: C,B,E
*==============================================

*NPN
*Default NPN BJT pkg:TO-92B 1,2,3
.MODEL NPN~ NPN()

*QNPN
*pkg:TO-92B 1,2,3
.MODEL QNPN NPN(IS=3.2E-16 BF=141 VAF=35 ISE=2.6 NE=1.46 CJE=1E-13 
+ MJE=0.333 TF=6E-11 CJC=1E-13 CJS=2.2E-13 MJS=0.5 FC=0.67 )

*2N2219A MCE 5/13/95
*Si 800mW  40V 800mA 350MHz pkg:TO-5 3,2,1
.MODEL 2N2219A NPN(IKR=0.285 RB=1.53 RE=0.383 RC=0.153 CJE=2.41E-11 
+ VJE=1.1 MJE=0.5 TF=4.54E-10 CJC=2.02E-11 VJC=0.3 MJC=0.3 TR=3.15E-7 
+ XTB=1.5 )

*2N2222A
*Si 500mW 40V 800mA 300MHz pkg:TO-18 3,2,1
.MODEL 2N2222A NPN(IS=8.11E-14 BF=205 VAF=113 IKF=0.5 ISE=1.06E-11 
+ NE=2 BR=4 VAR=24 IKR=0.225 RB=1.37 RE=0.343 RC=0.137 CJE=2.95E-11 
+ TF=3.97E-10 CJC=1.52E-11 TR=8.5E-8 XTB=1.5 )

*2N2369A MCE 5/15/95
*Si 360mW 15V 500mA 600MHz pkg:TO-18 3,2,1
.MODEL 2N2369A NPN (IS=11.2F NF=1 BF=130 VAF=69.7 IKF=57M ISE=8.01P NE=2
+ BR=4 NR=1 VAR=18 IKR=85.5M RE=2.06 RB=8.26 RC=.826 XTB=1.5
+ CJE=3.17P VJE=1.1 MJE=.5 CJC=5.91P VJC=.3 MJC=.3 TF=265P TR=10.2N)

*2N2484 MCE 5/13/95
*Si 360mW  60V  50mA 100MHz pkg:TO-18 3,2,1
.MODEL 2N2484 NPN (IS=5.07F NF=1 BF=455 VAF=139 IKF=30M ISE=1.11P NE=2
+ BR=4 NR=1 VAR=24 IKR=45M RE=1.03 RB=4.12 RC=.412 XTB=1.5
+ CJE=4.82P VJE=1.1 MJE=.5 CJC=7.1P VJC=.3 MJC=.3 TF=1.59N TR=1.1U)

*2N3019 MCE 5/13/95
*Si 800mW  80V    1A 190MHz pkg:TO-5 3,2,1
.MODEL 2N3019 NPN (IS=2.02F NF=1 BF=260 VAF=161 IKF=.75 ISE=6.16P NE=2
+ BR=4 NR=1 VAR=28 IKR=1.12 RE=.331 RB=1.32 RC=.132 XTB=1.5
+ CJE=76P VJE=1.1 MJE=.5 CJC=18.7P VJC=.3 MJC=.3 TF=837P TR=581N)

*2N3053 MCE 1/26/96
*Si 5W     40V 700mA 185MHz pkg:TO-5 3,2,1
.MODEL 2N3053 NPN (IS=71.1F NF=1 BF=260 VAF=113 IKF=.42 ISE=27.3P NE=2
+ BR=4 NR=1 VAR=20 IKR=.63 RE=73.6M RB=.294 RC=29.4M XTB=1.5
+ CJE=79.2P VJE=1.1 MJE=.5 CJC=25.5P VJC=.3 MJC=.3 TF=858P TR=596N)

*2N3055
*Si  115W  70V   15A  20kHz pkg:TO-3 3,2,1
.MODEL 2N3055 NPN(IS=4.66E-12 BF=360 VAF=100 IKF=0.25 ISE=3.339E-11 
+ BR=2 ISC=5E-9 RB=3 IRB=0.001 RBM=0.4 RC=0.04 CJE=5.802E-10 VJE=1.2 
+ MJE=0.45 TF=8E-8 XTF=1 ITF=3 PTF=120 CJC=2.121E-10 MJC=0.4 TR=2.55E-6 
+ XTB=1 )

*2N3501 MCE 5/13/95
*Si    1W 150V 300mA 283MHz pkg:TO-5 3,2,1
.MODEL 2N3501 NPN (IS=30.4F NF=1 BF=136 VAF=220 IKF=.12 ISE=18.2P NE=2
+ BR=4 NR=1 VAR=24 IKR=.18 RE=.171 RB=.687 RC=68.7M XTB=1.5
+ CJE=63.5P VJE=1.1 MJE=.5 CJC=14.6P VJC=.3 MJC=.3 TF=562P TR=390N)

*2N3507
*Si    1W  50V    3A  60MHz pkg:TO-5 3,2,1
.MODEL 2N3507 NPN(IS=1.5E-8 BF=75 NF=1.67 VAF=100 IKF=1.2 BR=4 RC=0.2 
+ CJE=5E-10 TF=1.8E-9 CJC=7E-11 TR=2.5E-8 XTB=1.5 )

*2N3700 MCE 5/13/95
*Si 500mW  80V    1A 190MHz pkg:TO-18 3,2,1
.MODEL 2N3700 NPN (IS=2.02F NF=1 BF=260 VAF=161 IKF=.75 ISE=6.16P NE=2
+ BR=4 NR=1 VAR=28 IKR=1.12 RE=.331 RB=1.32 RC=.132 XTB=1.5
+ CJE=76P VJE=1.1 MJE=.5 CJC=18.7P VJC=.3 MJC=.3 TF=837P TR=581N)

*2N3904
*Si 310mW  40V 200mA 300MHz pkg:TO-92B 1,2,3
.MODEL 2N3904 NPN(IS=1.4E-14 BF=300 VAF=100 IKF=0.025 ISE=3E-13 
+ BR=7.5 RC=2.4 CJE=4.5E-12 TF=4E-10 CJC=3.5E-12 TR=2.1E-8 XTB=1.5 KF=9E-16 )

*2N3947 MCE 5/13/95
*Si 360mW  40V 200mA 346MHz pkg:TO-18 3,2,1
.MODEL 2N3947 NPN (IS=.258F NF=1 BF=286 VAF=113 IKF=32M ISE=413F NE=2
+ BR=4 NR=1 VAR=24 IKR=48M RE=1.03 RB=4.12 RC=.412 XTB=1.5
+ CJE=7.18P VJE=1.1 MJE=.5 CJC=6.15P VJC=.3 MJC=.3 TF=458P TR=425N)

*2N4401
*Si 310mW  40V 600mA 250MHz pkg:TO-92B 1,2,3
.MODEL 2N4401 NPN(IS=9.09E-15 BF=300 VAF=113 IKF=0.36 ISE=1.06E-11 
+ NE=2 BR=4 VAR=24 IKR=0.54 RB=1.27 RE=0.319 RC=0.127 CJE=2.34E-11 TF=5.12E-10 
+ CJC=1.02E-11 TR=1.51E-7 XTB=1.5 )

*2N5551 MCE 5/11/95
*Si 625mW 160V 600mA 300MHz pkg:TO-92B 1,2,3
.MODEL 2N5551 NPN (IS=2.67E-20 NF=1 BF=195 VAF=227 IKF=15M ISE=4.22F NE=2
+ BR=4 NR=1 VAR=24 IKR=22.5M RE=1.63 RB=6.52 RC=.652 XTB=1.5
+ CJE=17.9P VJE=1.1 MJE=.5 CJC=7.76P VJC=.3 MJC=.3 TF=530P TR=595N)

*2N6431 MCE 5/13/95
*Si 500mW 300V  50mA 300MHz pkg:TO-18 3,2,1
.MODEL 2N6431 NPN (IS=5.07F NF=1 BF=130 VAF=311 IKF=30M ISE=3.9P NE=2
+ BR=4 NR=1 VAR=24 IKR=45M RE=1.03 RB=4.12 RC=.412 XTB=1.5
+ CJE=12.4P VJE=1.1 MJE=.5 CJC=4.02P VJC=.3 MJC=.3 TF=530P TR=368N)

*2N6517 MCE 5/11/95
*Si 625mW 350V 500mA 200MHz pkg:TO-92B 1,2,3
.MODEL 2N6517 NPN (IS=67.3F NF=1 BF=320 VAF=336 IKF=90M ISE=97.3P NE=2
+ BR=4 NR=1 VAR=24 IKR=.135 RE=9.63 RB=38.5 RC=3.85 XTB=1.5
+ CJE=58P VJE=1.1 MJE=.5 CJC=13.3P VJC=.3 MJC=.3 TF=795P TR=5.1U)

*2N4124 MCE 4/8/97
*Si 625mW 25V 200mA 300MHz GenPurpose pkg:TO-92B 1,2,3
.MODEL 2N4124 NPN (IS=20.3F NF=1 BF=312 VAF=90 IKF=0.12 ISE=8.4P NE=2
+ BR=4 NR=1 VAR=20 IKR=0.18 RE=0.258 RB=1.03 RC=0.103 XTB=1.5
+ CJE=27.9P VJE=1.1 MJE=0.5 CJC=8.99P VJC=0.3 MJC=0.3 TF=530P TR=368N)

*2N5088 MCE 4/8/97
*Si 625mW 30V 100mA 50MHz GenPurpose pkg:TO-92B 1,2,3
.MODEL 2N5088 NPN (IS=10.2F NF=1 BF=780 VAF=98.6 IKF=60M ISE=1.68P NE=2
+ BR=4 NR=1 VAR=18 IKR=90M RE=0.515 RB=2.06 RC=0.206 XTB=1.5
+ CJE=17.6P VJE=1.1 MJE=0.5 CJC=5.68P VJC=0.3 MJC=0.3 TF=3.18N TR=2.21U)

*2N5089 MCE 4/8/97
*Si 625mW 25V 100mA 50MHz GenPurpose pkg:TO-92B 1,2,3
.MODEL 2N5089 NPN (IS=10.2F NF=1 BF=1.04K VAF=90 IKF=60M ISE=1.26P NE=2
+ BR=4 NR=1 VAR=18 IKR=90M RE=0.515 RB=2.06 RC=0.206 XTB=1.5
+ CJE=17.6P VJE=1.1 MJE=0.5 CJC=5.68P VJC=0.3 MJC=0.3 TF=3.18N TR=2.21U)

*2N5210 MCE 4/8/97
*Si 625mW 50V 100mA 30MHz GenPurpose pkg:TO-92B 1,2,3
.MODEL 2N5210 NPN (IS=10.2F NF=1 BF=455 VAF=127 IKF=60M ISE=2.88P NE=2
+ BR=4 NR=1 VAR=18 IKR=90M RE=0.515 RB=2.06 RC=0.206 XTB=1.5
+ CJE=17.6P VJE=1.1 MJE=0.5 CJC=5.68P VJC=0.3 MJC=0.3 TF=5.3N TR=3.68U)

*MPSA42 MCE 4/8/97
*Si 625mW 300V 200mA 50MHz HiVoltageAmp pkg:TO-92B 1,2,3
.MODEL MPSA42 NPN (IS=20.3F NF=1 BF=117 VAF=312 IKF=45M ISE=22.4P NE=2
+ BR=4 NR=1 VAR=24 IKR=67.5M RE=0.258 RB=1.03 RC=0.103 XTB=1.5
+ CJE=24.9P VJE=1.1 MJE=0.5 CJC=8.67P VJC=0.3 MJC=0.3 TF=3.18N TR=2.21U)

*MPSA43 MCE 4/8/97
*Si 625mW 200V 200mA 50MHz HiVoltageAmp pkg:TO-92B 1,2,3
.MODEL MPSA43 NPN (IS=20.3F NF=1 BF=117 VAF=255 IKF=45M ISE=22.4P NE=2
+ BR=4 NR=1 VAR=24 IKR=67.5M RE=0.258 RB=1.03 RC=0.103 XTB=1.5
+ CJE=24.9P VJE=1.1 MJE=0.5 CJC=8.67P VJC=0.3 MJC=0.3 TF=3.18N TR=2.21U)

*MPSA06 MCE 5/12/95
*Si 625mW  80V 500mA 219MHz pkg:TO-92B 1,2,3
.MODEL MPSA06 NPN (IS=50.7F NF=1 BF=286 VAF=161 IKF=.3 ISE=17.7P NE=2
+ BR=4 NR=1 VAR=16 IKR=.45 RE=.103 RB=.412 RC=41.2M XTB=1.5
+ CJE=58.7P VJE=1.1 MJE=.5 CJC=18.9P VJC=.3 MJC=.3 TF=725P TR=504N)

*MPSA17 MCE 5/12/95
*Si 350mW  40V 100mA 125MHz pkg:TO-92B 1,2,3
.MODEL MPSA17 NPN (IS=28.7F NF=1 BF=630 VAF=113 IKF=40M ISE=4.71P NE=2
+ BR=4 NR=1 VAR=60 IKR=60M RE=4.81 RB=19.2 RC=1.92 XTB=1.5
+ CJE=17.6P VJE=1.1 MJE=.5 CJC=5.68P VJC=.3 MJC=.3 TF=1.27N TR=884N)

*MPSA18 MCE 5/12/95
*Si 625mW  45V 200mA 450MHz pkg:TO-92B 1,2,3
.MODEL MPSA18 NPN (IS=20.3F NF=1 BF=1.43K VAF=120 IKF=.12 ISE=1.41P NE=2
+ BR=4 NR=1 VAR=26 IKR=.18 RE=.465 RB=1.86 RC=.186 XTB=1.5
+ CJE=7.87P VJE=1.1 MJE=.5 CJC=5.2P VJC=.3 MJC=.3 TF=353P TR=245N)

*MPSA44 MCE 5/12/95
*Si 625mW 400V 300mA 200MHz pkg:TO-92B 1,2,3
.MODEL MPSA44 NPN (IS=141F NF=1 BF=130 VAF=360 IKF=.18 ISE=50.4P NE=2
+ BR=4 NR=1 VAR=2.4 IKR=.27 RE=1.77 RB=7.09 RC=.709 XTB=1.5
+ CJE=111P VJE=1.1 MJE=.5 CJC=17.9P VJC=.3 MJC=.3 TF=795P TR=552N)

*2N3903 MCE 5-20-97
*Ref: Motorola Small-Signal Device Databook, Q4/94
*Si 625mW 40V 200mA 250MHz GenPurp pkg:TO-92B 1,2,3
.MODEL 2N3903 NPN (IS=20.3F NF=1 BF=190 VAF=114 IKF=50M ISE=20.2P NE=2
+ BR=4 NR=1 VAR=24 IKR=75M RE=0.258 RB=1.03 RC=0.103 XTB=1.5
+ CJE=4.42P VJE=1.1 MJE=0.5 CJC=4.73P VJC=0.3 MJC=0.3 TF=636P TR=298N)

*2N4123 MCE 5-20-97
*Ref: Motorola Small-Signal Device Databook, Q4/94
*Si 625mW 30V 200mA 250MHz GenPurp pkg:TO-92B 1,2,3
.MODEL 2N4123 NPN (IS=20.3F NF=1 BF=190 VAF=98.6 IKF=50M ISE=20.2P NE=2
+ BR=4 NR=1 VAR=20 IKR=75M RE=0.258 RB=1.03 RC=0.103 XTB=1.5
+ CJE=4.42P VJE=1.1 MJE=0.5 CJC=4.73P VJC=0.3 MJC=0.3 TF=636P TR=442N)

*2N4264 MCE 5-20-97
*Ref: Motorola Small-Signal Device Databook, Q4/94
*Si 350mW 15V 200mA 300MHz GenPurp pkg:TO-92B 1,2,3
.MODEL 2N4264 NPN (IS=20.3F NF=1 BF=130 VAF=69.7 IKF=0.2 ISE=20.2P NE=2
+ BR=4 NR=1 VAR=24 IKR=0.3 RE=0.258 RB=1.03 RC=0.103 XTB=1.5
+ CJE=6.91P VJE=1.1 MJE=0.5 CJC=6.39P VJC=0.3 MJC=0.3 TF=530P TR=368N)

*2N4265 MCE 5-20-97
*Ref: Motorola Small-Signal Device Databook, Q4/94
*Si 350mW 12V 200mA 300MHz GenPurp pkg:TO-92B 1,2,3
.MODEL 2N4265 NPN (IS=20.3F NF=1 BF=325 VAF=62.4 IKF=0.2 ISE=8.06P NE=2
+ BR=4 NR=1 VAR=24 IKR=0.3 RE=0.258 RB=1.03 RC=0.103 XTB=1.5
+ CJE=6.91P VJE=1.1 MJE=0.5 CJC=6.39P VJC=0.3 MJC=0.3 TF=530P TR=368N)

*2N4400 MCE 5-20-97
*Ref: Motorola Small-Signal Device Databook, Q4/94
*Si 625mW 40V 600mA 200MHz GenPurp pkg:TO-92B 1,2,3
.MODEL 2N4400 NPN (IS=60.9F NF=1 BF=115 VAF=114 IKF=0.4 ISE=60.5P NE=2
+ BR=4 NR=1 VAR=24 IKR=0.6 RE=85.8M RB=0.343 RC=34.3M XTB=1.5
+ CJE=23.5P VJE=1.1 MJE=0.5 CJC=10.9P VJC=0.3 MJC=0.3 TF=795P TR=552N)

*2N4410 MCE 5-20-97
*Ref: Motorola Small-Signal Device Databook, Q4/94
*Si 625mW 80V 250mA 100MHz Amp pkg:TO-92B 1,2,3
.MODEL 2N4410 NPN (IS=25.4F NF=1 BF=260 VAF=161 IKF=0.15 ISE=12.6P NE=2
+ BR=4 NR=1 VAR=20 IKR=0.225 RE=0.206 RB=0.824 RC=82.4M XTB=1.5
+ CJE=60.3P VJE=1.1 MJE=0.5 CJC=34.7P VJC=0.3 MJC=0.3 TF=1.59N TR=1.1U)

*2N5209 MCE 5-20-97
*Ref: Motorola Small-Signal Device Databook, Q4/94
*Si 625mW 50V 50mA 30MHz Amp pkg:TO-92B 1,2,3
.MODEL 2N5209 NPN (IS=5.08F NF=1 BF=260 VAF=127 IKF=30M ISE=2.52P NE=2
+ BR=4 NR=1 VAR=16 IKR=45M RE=1.03 RB=4.12 RC=0.412 XTB=1.5
+ CJE=12.5P VJE=1.1 MJE=0.5 CJC=4.02P VJC=0.3 MJC=0.3 TF=5.3N TR=3.68U)

*2N5550 MCE 5-20-97
*Ref: Motorola Small-Signal Device Databook, Q4/94
*Si 625mW 140V 600mA 200MHz Amp pkg:TO-92B 1,2,3
.MODEL 2N5550 NPN (IS=60.9F NF=1 BF=162 VAF=213 IKF=0.36 ISE=48.4P NE=2
+ BR=4 NR=1 VAR=24 IKR=0.54 RE=85.8M RB=0.343 RC=34.3M XTB=1.5
+ CJE=69P VJE=1.1 MJE=0.5 CJC=22.2P VJC=0.3 MJC=0.3 TF=795P TR=552N)

*2N6515 MCE 5-20-97
*Ref: Motorola Small-Signal Device Databook, Q4/94
*Si 625mW 250V 500mA 100MHz HiVolt pkg:TO-92B 1,2,3
.MODEL 2N6515 NPN (IS=50.8F NF=1 BF=195 VAF=285 IKF=0.3 ISE=33.6P NE=2
+ BR=4 NR=1 VAR=24 IKR=0.45 RE=0.103 RB=0.412 RC=41.2M XTB=1.5
+ CJE=58.7P VJE=1.1 MJE=0.5 CJC=18.9P VJC=0.3 MJC=0.3 TF=1.59N TR=1.1U)

*2N6516 MCE 5-20-97
*Ref: Motorola Small-Signal Device Databook, Q4/94
*Si 625mW 300V 500mA 100MHz HiVolt pkg:TO-92B 1,2,3
.MODEL 2N6516 NPN (IS=50.8F NF=1 BF=182 VAF=312 IKF=0.3 ISE=36P NE=2
+ BR=4 NR=1 VAR=24 IKR=0.45 RE=0.103 RB=0.412 RC=41.2M XTB=1.5
+ CJE=58.7P VJE=1.1 MJE=0.5 CJC=18.9P VJC=0.3 MJC=0.3 TF=1.59N TR=1.1U)

*MPSA05 MCE 5-20-97
*Ref: Motorola Small-Signal Device Databook, Q4/94
*Si 625mW 60V 500mA 150MHz Amp pkg:TO-92B 1,2,3
.MODEL MPSA05 NPN (IS=50.8F NF=1 BF=260 VAF=139 IKF=0.3 ISE=25.2P NE=2
+ BR=4 NR=1 VAR=16 IKR=0.45 RE=0.103 RB=0.412 RC=41.2M XTB=1.5
+ CJE=58.7P VJE=1.1 MJE=0.5 CJC=18.9P VJC=0.3 MJC=0.3 TF=1.06N TR=737N)

*MPSA16 MCE 5-20-97
*Ref: Motorola Small-Signal Device Databook, Q4/94
*Si 350mW 40V 100mA 150MHz Chopper pkg:TO-92B 1,2,3
.MODEL MPSA16 NPN (IS=10.2F NF=1 BF=520 VAF=139 IKF=60M ISE=2.52P NE=2
+ BR=4 NR=1 VAR=48 IKR=90M RE=0.515 RB=2.06 RC=0.206 XTB=1.5
+ CJE=17.6P VJE=1.1 MJE=0.5 CJC=5.68P VJC=0.3 MJC=0.3 TF=1.06N TR=737N)

*2N930 MCE 5-20-97
*Ref: Motorola Small-Signal Device Databook, Q4/94
*Si 1.2W 45V 30mA 60MHz Amp pkg:TO-18 3,2,1
.MODEL 2N930 NPN (IS=3.05F NF=1 BF=390 VAF=121 IKF=18M ISE=1.01P NE=2
+ BR=4 NR=1 VAR=20 IKR=27M RE=1.72 RB=6.87 RC=0.687 XTB=1.5
+ CJE=10.4P VJE=1.1 MJE=0.5 CJC=3.36P VJC=0.3 MJC=0.3 TF=2.65N TR=1.84U)

*2N930A MCE 5-20-97
*Ref: Motorola Small-Signal Device Databook, Q4/94
*Si 1.2W 45V 30mA 90MHz Amp pkg:TO-18 3,2,1
.MODEL 2N930A NPN (IS=3.05F NF=1 BF=390 VAF=121 IKF=18M ISE=1.01P NE=2
+ BR=4 NR=1 VAR=24 IKR=27M RE=1.72 RB=6.87 RC=0.687 XTB=1.5
+ CJE=10.4P VJE=1.1 MJE=0.5 CJC=3.36P VJC=0.3 MJC=0.3 TF=1.77N TR=1.23U)

*2N1893 MCE 5-20-97
*Ref: Motorola Small-Signal Device Databook, Q4/94
*Si 1.2W 80V 500mA 90MHz GenPurp pkg:TO-39 3,2,1
.MODEL 2N1893 NPN (IS=50.8F NF=1 BF=104 VAF=161 IKF=0.3 ISE=63P NE=2
+ BR=4 NR=1 VAR=28 IKR=0.45 RE=0.103 RB=0.412 RC=41.2M XTB=1.5
+ CJE=58.7P VJE=1.1 MJE=0.5 CJC=18.9P VJC=0.3 MJC=0.3 TF=1.77N TR=1.23U)

*2N2102 MCE 5-20-97
*Ref: Motorola Small-Signal Device Databook, Q4/94
*Si 1W 65V 1A 90MHz Amp pkg:TO-39 3,2,1
.MODEL 2N2102 NPN (IS=102F NF=1 BF=104 VAF=145 IKF=0.6 ISE=126P NE=2
+ BR=4 NR=1 VAR=28 IKR=0.9 RE=51.5M RB=0.206 RC=20.6M XTB=1.5
+ CJE=110P VJE=1.1 MJE=0.5 CJC=35.5P VJC=0.3 MJC=0.3 TF=1.77N TR=1.23U)

*2N2218A MCE 5-20-97
*Ref: Motorola Small-Signal Device Databook, Q4/94
*Si 800mW 40V 800mA 250MHz GenPurp pkg:TO-39 3,2,1
.MODEL 2N2218A NPN (IS=81.2F NF=1 BF=104 VAF=114 IKF=0.48 ISE=101P NE=2
+ BR=4 NR=1 VAR=24 IKR=0.72 RE=64.4M RB=0.258 RC=25.8M XTB=1.5
+ CJE=89.5P VJE=1.1 MJE=0.5 CJC=28.9P VJC=0.3 MJC=0.3 TF=636P TR=442N)

*2N2219 MCE 5-20-97
*Ref: Motorola Small-Signal Device Databook, Q4/94
*Si 800mW 30V 800mA 300MHz GenPurp pkg:TO-39 3,2,1
.MODEL 2N2219 NPN (IS=81.2F NF=1 BF=195 VAF=98.6 IKF=0.48 ISE=53.7P NE=2
+ BR=4 NR=1 VAR=20 IKR=0.72 RE=64.4M RB=0.258 RC=25.8M XTB=1.5
+ CJE=89.5P VJE=1.1 MJE=0.5 CJC=28.9P VJC=0.3 MJC=0.3 TF=530P TR=368N)

*2N2222 MCE 5-20-97
*Ref: Motorola Small-Signal Device Databook, Q4/94
*Si 400mW 30V 800mA 300MHz GenPurp pkg:TO-18 3,2,1
.MODEL 2N2222 NPN (IS=81.2F NF=1 BF=195 VAF=98.6 IKF=0.48 ISE=53.7P NE=2
+ BR=4 NR=1 VAR=20 IKR=0.72 RE=64.4M RB=0.258 RC=25.8M XTB=1.5
+ CJE=89.5P VJE=1.1 MJE=0.5 CJC=28.9P VJC=0.3 MJC=0.3 TF=530P TR=368N)

*2N2270 MCE 5-20-97
*Ref: Motorola Small-Signal Device Databook, Q4/94
*Si 1W 45V 1A 250MHz Amp pkg:TO-39 3,2,1
.MODEL 2N2270 NPN (IS=102F NF=1 BF=156 VAF=121 IKF=0.6 ISE=84P NE=2
+ BR=4 NR=1 VAR=28 IKR=0.9 RE=51.5M RB=0.206 RC=20.6M XTB=1.5
+ CJE=72.4P VJE=1.1 MJE=0.5 CJC=28.9P VJC=0.3 MJC=0.3 TF=636P TR=442N)

*2N2369 MCE 5-20-97
*Ref: Motorola Small-Signal Device Databook, Q4/94
*Si 360mW 15V 200mA 500MHz Switch pkg:TO-18 3,2,1
.MODEL 2N2369 NPN (IS=20.3F NF=1 BF=104 VAF=69.7 IKF=0.12 ISE=25.2P NE=2
+ BR=4 NR=1 VAR=18 IKR=0.18 RE=0.258 RB=1.03 RC=0.103 XTB=1.5
+ CJE=27.9P VJE=1.1 MJE=0.5 CJC=8.99P VJC=0.3 MJC=0.3 TF=318P TR=221N)

*2N2895 MCE 5-20-97
*Ref: Motorola Small-Signal Device Databook, Q4/94
*Si 500mW 65V 1A 150MHz GenPurp pkg:TO-18 3,2,1
.MODEL 2N2895 NPN (IS=102F NF=1 BF=104 VAF=145 IKF=0.6 ISE=126P NE=2
+ BR=4 NR=1 VAR=28 IKR=0.9 RE=51.5M RB=0.206 RC=20.6M XTB=1.5
+ CJE=110P VJE=1.1 MJE=0.5 CJC=35.5P VJC=0.3 MJC=0.3 TF=1.06N TR=737N)

*2N2896 MCE 5-20-97
*Ref: Motorola Small-Signal Device Databook, Q4/94
*Si 500mW 90V 1A 150MHz GenPurp pkg:TO-18 3,2,1
.MODEL 2N2896 NPN (IS=102F NF=1 BF=156 VAF=171 IKF=0.6 ISE=84P NE=2
+ BR=4 NR=1 VAR=28 IKR=0.9 RE=51.5M RB=0.206 RC=20.6M XTB=1.5
+ CJE=110P VJE=1.1 MJE=0.5 CJC=35.5P VJC=0.3 MJC=0.3 TF=1.06N TR=737N)

*2N3020 MCE 5-20-97
*Ref: Motorola Small-Signal Device Databook, Q4/94
*Si 800mW 80V 1A 250MHz GenPurp pkg:TO-39 3,2,1
.MODEL 2N3020 NPN (IS=102F NF=1 BF=104 VAF=161 IKF=0.6 ISE=126P NE=2
+ BR=4 NR=1 VAR=28 IKR=0.9 RE=51.5M RB=0.206 RC=20.6M XTB=1.5
+ CJE=110P VJE=1.1 MJE=0.5 CJC=35.5P VJC=0.3 MJC=0.3 TF=636P TR=442N)

*2N3053A MCE 5-20-97
*Ref: Motorola Small-Signal Device Databook, Q4/94
*Si 1W 60V 700mA 150MHz GenPurp pkg:TO-39 3,2,1
.MODEL 2N3053A NPN (IS=71.1F NF=1 BF=195 VAF=139 IKF=0.42 ISE=47P NE=2
+ BR=4 NR=1 VAR=20 IKR=0.63 RE=73.6M RB=0.294 RC=29.4M XTB=1.5
+ CJE=79.2P VJE=1.1 MJE=0.5 CJC=25.6P VJC=0.3 MJC=0.3 TF=1.06N TR=737N)

*2N3500 MCE 5-20-97
*Ref: Motorola Small-Signal Device Databook, Q4/94
*Si 1W 150V 300mA 200MHz GenPurp pkg:TO-39 3,2,1
.MODEL 2N3500 NPN (IS=30.5F NF=1 BF=104 VAF=220 IKF=0.18 ISE=37.8P NE=2
+ BR=4 NR=1 VAR=24 IKR=0.27 RE=0.172 RB=0.687 RC=68.7M XTB=1.5
+ CJE=38.2P VJE=1.1 MJE=0.5 CJC=12.3P VJC=0.3 MJC=0.3 TF=795P TR=552N)

*2N4014 MCE 5-20-97
*Ref: Motorola Small-Signal Device Databook, Q4/94
*Si 500mW 40V 1A 400MHz Switch pkg:TO-18 3,2,1
.MODEL 2N4014 NPN (IS=102F NF=1 BF=130 VAF=114 IKF=0.6 ISE=101P NE=2
+ BR=4 NR=1 VAR=24 IKR=0.9 RE=51.5M RB=0.206 RC=20.6M XTB=1.5
+ CJE=62.2P VJE=1.1 MJE=0.5 CJC=14.7P VJC=0.3 MJC=0.3 TF=398P TR=276N)

*==============================================
*PNP Trans Pinout: C,B,E
*==============================================

*Default PNP BJT pkg:TO-92B 1,2,3
.MODEL PNP~ PNP()

*2N2905A MCE 7/5/95
*Si 600mW  60V 600mA 300MHz pkg:TO-5 3,2,1
.MODEL 2N2905A PNP(IS=6.09E-14 BF=130 VAF=139 IKF=0.36 ISE=4.68E-11 
+ NE=2 BR=4 VAR=20 IKR=0.54 RB=0.343 RE=0.0858 RC=0.0343 CJE=2.76E-11 
+ VJE=1.1 MJE=0.5 TF=5.3E-10 CJC=1.65E-11 VJC=0.3 MJC=0.3 TR=9.35E-8 
+ XTB=1.5 )

*2N2907A
*Si  1.8W  60V 600mA 200MHz pkg:TO-18 3,2,1
.MODEL 2N2907A PNP(IS=3.81E-13 BF=154 VAF=139 IKF=0.14 ISE=1.53E-11 
+ NE=2 BR=4 VAR=20 IKR=0.21 RB=2.21 RE=0.552 RC=0.221 CJE=1.56E-11 VJE=0.75 
+ TF=6.36E-10 CJC=2.08E-11 VJC=0.75 TR=6.37E-8 VJS=0.75 XTB=1.5 )

*2N3251A MCE 7/5/95
*Si 360mW  60V 200mA 340MHz pkg:TO-18 3,2,1
.MODEL 2N3251A PNP(IS=1.07E-15 BF=260 VAF=139 IKF=0.044 ISE=1.08E-12 
+ NE=2 BR=4 VAR=20 IKR=0.066 RB=8.52 RE=2.13 RC=0.852 CJE=5.8E-12 VJE=1.1 
+ MJE=0.5 TF=4.67E-10 CJC=9.94E-12 VJC=0.3 MJC=0.3 TR=2.04E-7 XTB=1.5 )

*2N3467 MCE 7/5/95
*Si    1W  40V    1A 200MHz pkg:TO-5 3,2,1
.MODEL 2N3467 PNP(IS=1.01E-13 BF=54.6 VAF=113 IKF=0.8 ISE=2.14E-10 
+ NE=2 BR=4 VAR=20 IKR=1.2 RB=1.92 RE=0.481 RC=0.192 CJE=2.42E-10 VJE=1.1 
+ MJE=0.5 TF=7.95E-10 CJC=7.81E-11 VJC=0.3 MJC=0.3 TR=5.52E-7 XTB=1.5 )

*2N3468 MCE 7/5/95
*Si    1W  50V    1A 180MHz pkg:TO-5 3,2,1
.MODEL 2N3468 PNP(IS=1.01E-13 BF=33.8 VAF=127 IKF=0.8 ISE=3.46E-10 
+ NE=2 BR=4 VAR=20 IKR=1.2 RB=2.32 RE=0.581 RC=0.232 CJE=2.42E-10 VJE=1.1 
+ MJE=0.5 TF=8.83E-10 CJC=7.81E-11 VJC=0.3 MJC=0.3 TR=6.14E-7 XTB=1.5 )

*2N3799 MCE 7/5/95
*Si 360mW  60V  50mA 300MHz pkg:TO-18 3,2,1
.MODEL 2N3799 PNP(IS=5.07E-15 BF=598 VAF=139 IKF=0.03 ISE=8.48E-13 
+ NE=2 BR=4 VAR=20 IKR=0.045 RB=4.12 RE=1.03 RC=0.412 CJE=1.9E-11 VJE=1.1 
+ MJE=0.5 TF=5.3E-10 CJC=6.15E-12 VJC=0.3 MJC=0.3 TR=3.68E-7 XTB=1.5 )

*2N3905
*Si 310mW  40V 200mA 200MHz pkg:TO-92B 1,2,3
.MODEL 2N3905 PNP(IS=1.05E-15 BF=220 VAF=240 IKF=0.1 ISE=1.003E-9 
+ NE=4 ISC=1.003E-9 NC=4 RB=3 RE=0.5 RC=0.2 CJE=5.7E-12 VJE=0.75 TF=3.35E-10 
+ CJC=4.32E-12 VJC=0.75 TR=1.7E-7 VJS=0.75 KF=4E-15 )

*2N3906
*Si 310mW  40V 200mA 250MHz pkg:TO-92B 1,2,3
.MODEL 2N3906 PNP(IS=4E-14 BF=400 VAF=50 IKF=0.02 ISE=7E-15 NE=1.16 
+ BR=7.5 RC=2.4 CJE=6.3E-12 VJE=0.75 TF=5E-10 CJC=5.8E-12 VJC=0.75 TR=2.3E-8 
+ VJS=0.75 XTB=1.5 KF=6E-16 )

*2N3964 MCE 7/5/95
*Si 360mW  45V 200mA 300MHz pkg:TO-18 3,2,1
.MODEL 2N3964 PNP(IS=2.03E-14 BF=598 VAF=120 IKF=0.12 ISE=3.39E-12 
+ NE=2 BR=4 VAR=24 IKR=0.18 RB=1.03 RE=0.257 RC=0.103 CJE=5.43E-11 VJE=1.1 
+ MJE=0.5 TF=5.3E-10 CJC=1.75E-11 VJC=0.3 MJC=0.3 TR=3.68E-7 XTB=1.5 )

*2N4402
*Si 310mW  40V 600mA 150MHz pkg:TO-92B 1,2,3
.MODEL 2N4402 PNP(IS=1.59E-14 BF=150 VAF=114 IKF=250 ISE=8.41E-12 
+ NE=2 BR=4 VAR=20 RB=2.9 RE=0.71 RC=0.29 CJE=3E-11 VJE=0.379 MJE=0.259 
+ TF=7.9E-10 CJC=2E-11 VJC=0.3 MJC=0.301 TR=7.7E-8 VJS=0.75 XTB=1.5 )

*2N4403 MCE 7/5/95
*Si 625mW  40V 600mA 250MHz pkg:TO-92B 1,2,3
.MODEL 2N4403 PNP(IS=2.76E-15 BF=339 VAF=113 IKF=0.36 ISE=3.82E-12 
+ NE=2 BR=4 VAR=20 IKR=0.54 RB=1.17 RE=0.293 RC=0.117 CJE=2.48E-11 VJE=1.1 
+ MJE=0.5 TF=6.36E-10 CJC=1.58E-11 VJC=0.3 MJC=0.3 TR=2.55E-7 XTB=1.5 )

*2N5087 MCE 7/3/95
*Si 625mW  50V  50mA 400MHz pkg:TO-92B 1,2,3
.MODEL 2N5087 PNP(IS=5.07E-15 BF=715 VAF=127 IKF=0.08 ISE=1.15E-12 
+ NE=2 BR=4 VAR=12 IKR=0.12 RB=4.12 RE=1.03 RC=0.412 CJE=9.67E-12 VJE=1.1 
+ MJE=0.5 TF=3.97E-10 CJC=5.68E-12 VJC=0.3 MJC=0.3 TR=5.1E-7 XTB=1.5 )

*2N5401 MCE 7/3/95
*Si 625mW 150V 600mA 300MHz pkg:TO-92B 1,2,3
.MODEL 2N5401 PNP(IS=4.61E-13 BF=93 VAF=220 IKF=0.91 ISE=7.54E-11 
+ NE=2 BR=4 VAR=20 IKR=1.36 RB=3.86 RE=0.965 RC=0.386 CJE=5.66E-11 VJE=1.1 
+ MJE=0.5 TF=5.3E-10 CJC=2.36E-11 VJC=0.3 MJC=0.3 TR=3.68E-7 XTB=1.5 )

*2N6433 MCE 7/3/95
*Si 500mW 300V 500mA 300MHz pkg:TO-18 3,2,1
.MODEL 2N6433 PNP(IS=5.07E-14 BF=130 VAF=311 IKF=0.3 ISE=3.9E-11 
+ NE=2 BR=4 VAR=2 IKR=0.45 RB=0.412 RE=0.103 RC=0.0412 CJE=1.24E-10 
+ VJE=1.1 MJE=0.5 TF=5.3E-10 CJC=4.02E-11 VJC=0.3 MJC=0.3 TR=3.68E-7 
+ XTB=1.5 )

*2N6520 MCE 7/3/95
*Si 625mW 350V 500mA  84MHz pkg:TO-92B 1,2,3
.MODEL 2N6520 PNP(IS=1.98E-14 BF=104 VAF=336 IKF=0.09 ISE=1.66E-11 
+ NE=2 BR=4 VAR=20 IKR=0.135 RB=3.66 RE=0.915 RC=0.366 CJE=9.81E-11 
+ VJE=1.1 MJE=0.5 TF=1.89E-9 CJC=3.07E-11 VJC=0.3 MJC=0.3 TR=1.31E-6 
+ XTB=1.5 )

*MPSA56 MCE 7/5/95
*Si 625mW  80V 500mA 155MHz pkg:TO-92B 1,2,3
.MODEL MPSA56 PNP(IS=5.07E-14 BF=208 VAF=161 IKF=0.4 ISE=2.81E-11 
+ NE=2 BR=4 VAR=16 IKR=0.6 RB=0.412 RE=0.103 RC=0.0412 CJE=9.67E-11 
+ VJE=1.1 MJE=0.5 TF=1.02E-9 CJC=3.55E-11 VJC=0.3 MJC=0.3 TR=1.3E-6 
+ XTB=1.5 )

*MPSA92 MCE 7/5/95
*Si 625mW 300V 500mA  95MHz pkg:TO-92B 1,2,3
.MODEL MPSA92 PNP(IS=9.12E-13 BF=104 VAF=311 IKF=0.073 ISE=1.02E-10 
+ NE=2 BR=4 VAR=20 IKR=0.109 RB=19.2 RE=4.81 RC=1.92 CJE=8.57E-11 VJE=1.1 
+ MJE=0.5 TF=1.67E-9 CJC=1.82E-11 VJC=0.3 MJC=0.3 TR=1.16E-6 XTB=1.5 )

*2N4126 MCE 4/10/97
*Si 625mW 25V 200mA 250MHz GenPurp pkg:TO-92B 1,2,3
.MODEL 2N4126 PNP (IS=20.3F NF=1 BF=260 VAF=90 IKF=0.12 ISE=10.1P NE=2
+ BR=4 NR=1 VAR=16 IKR=0.18 RE=0.258 RB=1.03 RC=0.103 XTB=1.5
+ CJE=12.1P VJE=1.1 MJE=0.5 CJC=10.7P VJC=0.3 MJC=0.3 TF=636P TR=442N)

*2N4258 MCE 4/10/97
*Si 350mW 12V 200mA 700MHz Switching pkg:TO-92B 1,2,3
.MODEL 2N4258 PNP (IS=20.3F NF=1 BF=130 VAF=62.4 IKF=0.12 ISE=20.2P NE=2
+ BR=4 NR=1 VAR=18 IKR=0.18 RE=0.258 RB=1.03 RC=0.103 XTB=1.5
+ CJE=4.22P VJE=1.1 MJE=0.5 CJC=7.1P VJC=0.3 MJC=0.3 TF=227P TR=158N)

*2N5086 MCE 4/10/97
*Si 625mW 50V 100mA 40MHz GenPurp pkg:TO-92B 1,2,3
.MODEL 2N5086 PNP (IS=10.2F NF=1 BF=260 VAF=127 IKF=60M ISE=5.04P NE=2
+ BR=4 NR=1 VAR=20 IKR=90M RE=0.515 RB=2.06 RC=0.206 XTB=1.5
+ CJE=29.3P VJE=1.1 MJE=0.5 CJC=9.47P VJC=0.3 MJC=0.3 TF=3.98N TR=2.76U)

*2N5087 MCE 4/10/97
*Si 625mW 50V 100mA 40MHz GenPurp pkg:TO-92B 1,2,3
.MODEL 2N5087 PNP (IS=10.2F NF=1 BF=520 VAF=127 IKF=60M ISE=2.52P NE=2
+ BR=4 NR=1 VAR=20 IKR=90M RE=0.515 RB=2.06 RC=0.206 XTB=1.5
+ CJE=29.3P VJE=1.1 MJE=0.5 CJC=9.47P VJC=0.3 MJC=0.3 TF=3.98N TR=2.76U)

*2N5771 MCE 4/10/97
*Si 350mW 15V 200mA 700MHz Switching pkg:TO-92B 1,2,3
.MODEL 2N5771 PNP (IS=20.3F NF=1 BF=104 VAF=69.7 IKF=0.12 ISE=25.2P NE=2
+ BR=4 NR=1 VAR=18 IKR=0.18 RE=0.258 RB=1.03 RC=0.103 XTB=1.5
+ CJE=4.22P VJE=1.1 MJE=0.5 CJC=7.1P VJC=0.3 MJC=0.3 TF=227P TR=158N)

*2N4125 MCE 5-27-97
*Ref: Motorola Small-Signal Device databook, Q4/94
*Si 625mW 30V 200mA 250MHz Amp pkg:TO-92B 1,2,3
.MODEL 2N4125 PNP (IS=20.3F NF=1 BF=130 VAF=98.6 IKF=53M ISE=20.2P NE=2
+ BR=4 NR=1 VAR=16 IKR=79.5M RE=0.258 RB=1.03 RC=0.103 XTB=1.5
+ CJE=54.3P VJE=1.1 MJE=0.5 CJC=17.5P VJC=0.3 MJC=0.3 TF=636P TR=442N)

*2N5400 MCE 5-27-97
*Ref: Motorola Small-Signal Device databook, Q4/94
*Si 625mW 120V 600mA 250MHz Amp pkg:TO-92B 1,2,3
.MODEL 2N5400 PNP (IS=60.9F NF=1 BF=143 VAF=197 IKF=0.36 ISE=55P NE=2
+ BR=4 NR=1 VAR=20 IKR=0.54 RE=85.8M RB=0.343 RC=34.3M XTB=1.5
+ CJE=148P VJE=1.1 MJE=0.5 CJC=47.8P VJC=0.3 MJC=0.3 TF=636P TR=442N)

*2N6519 MCE 5-27-97
*Ref: Motorola Small-Signal Device databook, Q4/94
*Si 625mW 300V 500mA 120MHz HiVolt pkg:TO-92B 1,2,3
.MODEL 2N6519 PNP (IS=50.8F NF=1 BF=195 VAF=312 IKF=0.3 ISE=33.6P NE=2
+ BR=4 NR=1 VAR=20 IKR=0.45 RE=0.103 RB=0.412 RC=41.2M XTB=1.5
+ CJE=60.8P VJE=1.1 MJE=0.5 CJC=11.6P VJC=0.3 MJC=0.3 TF=1.33N TR=921N)

*MPSA55 MCE 5-27-97
*Ref: Motorola Small-Signal Device databook, Q4/94
*Si 625mW 60V 500mA 150MHz Amp pkg:TO-92B 1,2,3
.MODEL MPSA55 PNP (IS=50.8F NF=1 BF=195 VAF=139 IKF=0.3 ISE=33.6P NE=2
+ BR=4 NR=1 VAR=16 IKR=0.45 RE=0.103 RB=0.412 RC=41.2M XTB=1.5
+ CJE=96.7P VJE=1.1 MJE=0.5 CJC=35.5P VJC=0.3 MJC=0.3 TF=1.06N TR=737N)

*MPSA70 MCE 5-27-97
*Ref: Motorola Small-Signal Device databook, Q4/94
*Si 625mW 40V 100mA 100MHz Amp pkg:TO-92B 1,2,3
.MODEL MPSA70 PNP (IS=10.2F NF=1 BF=260 VAF=114 IKF=60M ISE=5.04P NE=2
+ BR=4 NR=1 VAR=16 IKR=90M RE=0.515 RB=2.06 RC=0.206 XTB=1.5
+ CJE=31.3P VJE=1.1 MJE=0.5 CJC=10.1P VJC=0.3 MJC=0.3 TF=1.06N TR=737N)

*MPSA93 MCE 5-27-97
*Ref: Motorola Small-Signal Device databook, Q4/94
*Si 625mW 200V 500mA 80MHz HiVolt pkg:TO-92B 1,2,3
.MODEL MPSA93 PNP (IS=50.8F NF=1 BF=78 VAF=255 IKF=0.3 ISE=84P NE=2
+ BR=4 NR=1 VAR=20 IKR=0.45 RE=0.103 RB=0.412 RC=41.2M XTB=1.5
+ CJE=85.7P VJE=1.1 MJE=0.5 CJC=12.4P VJC=0.3 MJC=0.3 TF=1.99N TR=1.38U)

*2N2904 MCE 5-27-97
*Ref: Motorola Small-Signal Device databook, Q4/94
*Si 600mW 40V 600mA 250MHz GenPurp pkg:TO-39 3,2,1
.MODEL 2N2904 PNP (IS=60.9F NF=1 BF=104 VAF=114 IKF=0.36 ISE=75.6P NE=2
+ BR=4 NR=1 VAR=20 IKR=0.54 RE=85.8M RB=0.343 RC=34.3M XTB=1.5
+ CJE=27.6P VJE=1.1 MJE=0.5 CJC=15.3P VJC=0.3 MJC=0.3 TF=636P TR=442N)

*2N2904A MCE 5-27-97
*Ref: Motorola Small-Signal Device databook, Q4/94
*Si 600mW 60V 600mA 250MHz GenPurp pkg:TO-39 3,2,1
.MODEL 2N2904A PNP (IS=60.9F NF=1 BF=104 VAF=139 IKF=0.36 ISE=75.6P NE=2
+ BR=4 NR=1 VAR=20 IKR=0.54 RE=85.8M RB=0.343 RC=34.3M XTB=1.5
+ CJE=27.6P VJE=1.1 MJE=0.5 CJC=15.3P VJC=0.3 MJC=0.3 TF=636P TR=442N)

*2N2905 MCE 5-27-97
*Ref: Motorola Small-Signal Device databook, Q4/94
*Si 600mW 40V 600mA 250MHz GenPurp pkg:TO-39 3,2,1
.MODEL 2N2905 PNP (IS=60.9F NF=1 BF=260 VAF=114 IKF=0.36 ISE=30.2P NE=2
+ BR=4 NR=1 VAR=20 IKR=0.54 RE=85.8M RB=0.343 RC=34.3M XTB=1.5
+ CJE=27.6P VJE=1.1 MJE=0.5 CJC=15.3P VJC=0.3 MJC=0.3 TF=636P TR=442N)

*2N2906 MCE 5-27-97
*Ref: Motorola Small-Signal Device databook, Q4/94
*Si 400mW 40V 600mA 250MHz GenPurp pkg:TO-18 3,2,1
.MODEL 2N2906 PNP (IS=60.9F NF=1 BF=104 VAF=114 IKF=0.36 ISE=75.6P NE=2
+ BR=4 NR=1 VAR=20 IKR=0.54 RE=85.8M RB=0.343 RC=34.3M XTB=1.5
+ CJE=27.6P VJE=1.1 MJE=0.5 CJC=15.3P VJC=0.3 MJC=0.3 TF=636P TR=442N)

*2N2906A MCE 5-27-97
*Ref: Motorola Small-Signal Device databook, Q4/94
*Si 400mW 60V 600mA 250MHz GenPurp pkg:TO-18 3,2,1
.MODEL 2N2906A PNP (IS=60.9F NF=1 BF=104 VAF=139 IKF=0.36 ISE=75.6P NE=2
+ BR=4 NR=1 VAR=20 IKR=0.54 RE=85.8M RB=0.343 RC=34.3M XTB=1.5
+ CJE=27.6P VJE=1.1 MJE=0.5 CJC=15.3P VJC=0.3 MJC=0.3 TF=636P TR=442N)

*2N2907 MCE 5-27-97
*Ref: Motorola Small-Signal Device databook, Q4/94
*Si 400mW 40V 600mA 250MHz GenPurp pkg:TO-18 3,2,1
.MODEL 2N2907 PNP (IS=60.9F NF=1 BF=260 VAF=114 IKF=0.36 ISE=30.2P NE=2
+ BR=4 NR=1 VAR=20 IKR=0.54 RE=85.8M RB=0.343 RC=34.3M XTB=1.5
+ CJE=27.6P VJE=1.1 MJE=0.5 CJC=15.3P VJC=0.3 MJC=0.3 TF=636P TR=442N)

*2N3244 MCE 5-27-97
*Ref: Motorola Small-Signal Device databook, Q4/94
*Si 1W 40V 1A 200MHz GenPurp pkg:TO-39 3,2,1
.MODEL 2N3244 PNP (IS=102F NF=1 BF=130 VAF=114 IKF=0.6 ISE=101P NE=2
+ BR=4 NR=1 VAR=20 IKR=0.9 RE=51.5M RB=0.206 RC=20.6M XTB=1.5
+ CJE=82.9P VJE=1.1 MJE=0.5 CJC=49.1P VJC=0.3 MJC=0.3 TF=795P TR=552N)

*2N3250 MCE 5-27-97
*Ref: Motorola Small-Signal Device databook, Q4/94
*Si 360mW 40V 200mA 300MHz GenPurp pkg:TO-18 3,2,1
.MODEL 2N3250 PNP (IS=20.3F NF=1 BF=130 VAF=114 IKF=0.12 ISE=20.2P NE=2
+ BR=4 NR=1 VAR=20 IKR=0.18 RE=0.258 RB=1.03 RC=0.103 XTB=1.5
+ CJE=5.66P VJE=1.1 MJE=0.5 CJC=11.6P VJC=0.3 MJC=0.3 TF=530P TR=368N)

*2N3251 MCE 5-27-97
*Ref: Motorola Small-Signal Device databook, Q4/94
*Si 360mW 40V 200mA 350MHz GenPurp pkg:TO-18 3,2,1
.MODEL 2N3251 PNP (IS=20.3F NF=1 BF=260 VAF=114 IKF=0.12 ISE=10.1P NE=2
+ BR=4 NR=1 VAR=20 IKR=0.18 RE=0.258 RB=1.03 RC=0.103 XTB=1.5
+ CJE=5.66P VJE=1.1 MJE=0.5 CJC=11.6P VJC=0.3 MJC=0.3 TF=454P TR=316N)

*2N3497 MCE 5-27-97
*Ref: Motorola Small-Signal Device databook, Q4/94
*Si 400mW 120V 100mA 200MHz GenPurp pkg:TO-18 3,2,1
.MODEL 2N3497 PNP (IS=10.2F NF=1 BF=78 VAF=197 IKF=60M ISE=16.8P NE=2
+ BR=4 NR=1 VAR=18 IKR=90M RE=0.515 RB=2.06 RC=0.206 XTB=1.5
+ CJE=35.8P VJE=1.1 MJE=0.5 CJC=11.6P VJC=0.3 MJC=0.3 TF=795P TR=552N)

*2N3546 MCE 5-27-97
*Ref: Motorola Small-Signal Device databook, Q4/94
*Si 360mW 12V 200mA 800MHz Switch pkg:TO-18 3,2,1
.MODEL 2N3546 PNP (IS=20.3F NF=1 BF=97.5 VAF=62.4 IKF=0.12 ISE=26.9P NE=2
+ BR=4 NR=1 VAR=18 IKR=0.18 RE=0.258 RB=1.03 RC=0.103 XTB=1.5
+ CJE=6.22P VJE=1.1 MJE=0.5 CJC=11.6P VJC=0.3 MJC=0.3 TF=199P TR=138N)

*2N3634 MCE 5-27-97
*Ref: Motorola Small-Signal Device databook, Q4/94
*Si 1W 140V 1A 200MHz GenPurp pkg:TO-39 3,2,1
.MODEL 2N3634 PNP (IS=102F NF=1 BF=130 VAF=213 IKF=0.6 ISE=101P NE=2
+ BR=4 NR=1 VAR=20 IKR=0.9 RE=51.5M RB=0.206 RC=20.6M XTB=1.5
+ CJE=67.7P VJE=1.1 MJE=0.5 CJC=26.6P VJC=0.3 MJC=0.3 TF=795P TR=552N)

*2N3635 MCE 5-27-97
*Ref: Motorola Small-Signal Device databook, Q4/94
*Si 1W 140V 1A 250MHz GenPurp pkg:TO-39 3,2,1
.MODEL 2N3635 PNP (IS=102F NF=1 BF=260 VAF=213 IKF=0.6 ISE=50.4P NE=2
+ BR=4 NR=1 VAR=20 IKR=0.9 RE=51.5M RB=0.206 RC=20.6M XTB=1.5
+ CJE=67.7P VJE=1.1 MJE=0.5 CJC=26.6P VJC=0.3 MJC=0.3 TF=636P TR=442N)

*2N3636 MCE 5-27-97
*Ref: Motorola Small-Signal Device databook, Q4/94
*Si 1W 175V 1A 200MHz GenPurp pkg:TO-39 3,2,1
.MODEL 2N3636 PNP (IS=102F NF=1 BF=130 VAF=238 IKF=0.6 ISE=101P NE=2
+ BR=4 NR=1 VAR=20 IKR=0.9 RE=51.5M RB=0.206 RC=20.6M XTB=1.5
+ CJE=67.7P VJE=1.1 MJE=0.5 CJC=26.6P VJC=0.3 MJC=0.3 TF=795P TR=552N)

*2N3637 MCE 5-27-97
*Ref: Motorola Small-Signal Device databook, Q4/94
*Si 1W 175V 1A 250MHz GenPurp pkg:TO-39 3,2,1
.MODEL 2N3637 PNP (IS=102F NF=1 BF=260 VAF=238 IKF=0.6 ISE=50.4P NE=2
+ BR=4 NR=1 VAR=20 IKR=0.9 RE=51.5M RB=0.206 RC=20.6M XTB=1.5
+ CJE=67.7P VJE=1.1 MJE=0.5 CJC=26.6P VJC=0.3 MJC=0.3 TF=636P TR=442N)

*2N3963 MCE 5-27-97
*Ref: Motorola Small-Signal Device databook, Q4/94
*Si 360mW 80V 200mA 257MHz Amp pkg:TO-18 3,2,1
.MODEL 2N3963 PNP (IS=20.3F NF=1 BF=260 VAF=161 IKF=0.12 ISE=10.1P NE=2
+ BR=4 NR=1 VAR=24 IKR=0.18 RE=0.258 RB=1.03 RC=0.103 XTB=1.5