*==============================================
*Diode Pinout: 1=A, 2=K
*Copyright (c) 1997 MicroCode Engineering, Inc.
*All Rights Reserved
*==============================================

*DIODE MCE
*Default diode parameter values pkg:DIODE0.4 1,2
.MODEL DIODE~ D()

*1N34 MCE
*60V 85mA Ge Signal Diode pkg:DIODE0.4 1,2
.MODEL 1N34 D(IS=200P RS=84M N=2.19 BV=60 IBV=15U
+ CJO=4.82P VJ=.75 M=.333 TT=144N)

*1N914 MCE
*100V 80mA Si Switching Diode pkg:DIODE0.4 1,2
.MODEL 1N914 D(IS=7.075E-9 RS=0.78 N=1.95 TT=7.2E-9 CJO=4E-12 VJ=0.657 
+ M=0.4 BV=100 IBV=0.0001 )

*1N914A MCE 3-13-97
*Ref: National Discrete Products Databook, 1996
*75V 20mA Si Computer Diode pkg:DIODE0.4 1,2
.MODEL 1N914A D (IS=28.4P RS=2.1 N=1.7 BV=75 IBV=5U
+ CJO=2.15P VJ=0.75 M=0.333 TT=4.32N)

*1N914B MCE 3-13-97
*Ref: National Discrete Products Databook, 1996
*75V 100mA Si Computer Diode pkg:DIODE0.4 1,2
.MODEL 1N914B D (IS=142P RS=0.42 N=1.7 BV=75 IBV=5U
+ CJO=5.3P VJ=0.75 M=0.333 TT=4.32N)

*1N4001 MCE 8-16-95
*50V 1A Si GenPurpose Diode pkg:DIODE0.4 1,2
.MODEL 1N4001 D(IS=2.55E-9 RS=0.042 N=1.75 TT=5.76E-6 CJO=1.85E-11 
+ VJ=0.75 M=0.333 BV=50 IBV=1E-5 )

*1N4002 MCE 8-16-95
*100V 1A Si GenPurpose Diode pkg:DIODE0.4 1,2
.MODEL 1N4002 D(IS=2.55E-9 RS=0.042 N=1.75 TT=5.76E-6 CJO=1.85E-11 
+ VJ=0.75 M=0.333 BV=100 IBV=1E-5 )

*1N4003 MCE 8-16-95
*200V 1A Si GenPurpose Diode pkg:DIODE0.4 1,2
.MODEL 1N4003 D(IS=2.55E-9 RS=0.042 N=1.75 TT=5.76E-6 CJO=1.85E-11 
+ VJ=0.75 M=0.333 BV=200 IBV=1.98E-5 )

*1N4004 MCE 8-16-95
*400V 1A Si GenPurpose Diode pkg:DIODE0.4 1,2
.MODEL 1N4004 D(IS=2.55E-9 RS=0.042 N=1.75 TT=5.76E-6 CJO=1.85E-11 
+ VJ=0.75 M=0.333 BV=400 IBV=3.95E-5 )

*1N4005 MCE 8-16-95
*600V 1A Si GenPurpose Diode pkg:DIODE0.4 1,2
.MODEL 1N4005 D(IS=2.55E-9 RS=0.042 N=1.75 TT=5.76E-6 CJO=1.85E-11 
+ VJ=0.75 M=0.333 BV=600 IBV=5.92E-5 )

*1N4006 MCE 8-16-95
*800V 1A Si GenPurpose Diode pkg:DIODE0.4 1,2
.MODEL 1N4006 D(IS=2.55E-9 RS=0.042 N=1.75 TT=5.76E-6 CJO=1.85E-11 
+ VJ=0.75 M=0.333 BV=800 IBV=7.89E-5 )

*1N4007 MCE 8-16-95
*1000V 1A Si GenPurpose Diode pkg:DIODE0.4 1,2
.MODEL 1N4007 D(IS=2.55E-9 RS=0.042 N=1.75 TT=5.76E-6 CJO=1.85E-11 
+ VJ=0.75 M=0.333 BV=1000 IBV=9.86E-5 )

*1N4148 MCE 3-13-97
*Ref: National Discrete Products Databook, 1996
*75V 10mA Si Computer Diode pkg:DIODE0.4 1,2
.MODEL 1N4148 D (IS=14.2P RS=4.2 N=1.7 BV=75 IBV=5U
+ CJO=1.74P VJ=0.75 M=0.333 TT=4.32N)

*1N4149 MCE 3-13-97
*Ref: National Discrete Products Databook, 1996
*75V 10mA Si Computer Diode pkg:DIODE0.4 1,2
.MODEL 1N4149 D (IS=14.2P RS=4.2 N=1.7 BV=75 IBV=5U
+ CJO=1.74P VJ=0.75 M=0.333 TT=4.32N)

*1N4150 MCE 3-13-97
*Ref: National Discrete Products Databook, 1996
*50V 200mA Si Computer Diode pkg:DIODE0.4 1,2
.MODEL 1N4150 D (IS=284P RS=0.21 N=1.7 BV=50 IBV=550N
+ CJO=3.31P VJ=0.75 M=0.333 TT=4.32N)

*1N4151 MCE 3-13-97
*Ref: National Discrete Products Databook, 1996
*50V 50mA Si Computer Diode pkg:DIODE0.4 1,2
.MODEL 1N4151 D (IS=71P RS=0.84 N=1.7 BV=50 IBV=138N
+ CJO=2.65P VJ=0.75 M=0.333 TT=4.32N)

*1N4152 MCE 3-13-97
*Ref: National Discrete Products Databook, 1996
*30V 20mA Si Computer Diode pkg:DIODE0.4 1,2
.MODEL 1N4152 D (IS=857P RS=2.1 N=1.7 BV=30 IBV=995N
+ CJO=2.65P VJ=0.75 M=0.333 TT=2.88N)

*1N4153 MCE 3-13-97
*Ref: National Discrete Products Databook, 1996
*50V 20mA Si Computer Diode pkg:DIODE0.4 1,2
.MODEL 1N4153 D (IS=857P RS=2.1 N=1.7 BV=50 IBV=1.66U
+ CJO=2.65P VJ=0.75 M=0.333 TT=2.88N)

*1N4154 MCE 3-13-97
*Ref: National Discrete Products Databook, 1996
*25V 30mA Si Computer Diode pkg:DIODE0.4 1,2
.MODEL 1N4154 D (IS=42.6P RS=1.4 N=1.7 BV=25 IBV=100N
+ CJO=5.3P VJ=0.75 M=0.333 TT=5.76N)

*1N4244 MCE 3-13-97
*Ref: National Discrete Products Databook, 1996
*15V 20mA Si Computer Diode pkg:DIODE0.4 1,2
.MODEL 1N4244 D (IS=28.4P RS=2.1 N=1.7 BV=15 IBV=250N
+ CJO=1.06P VJ=0.75 M=0.333 TT=1.08N)

*1N4305 MCE 3-13-97
*Ref: National Discrete Products Databook, 1996
*50V 10mA Si Computer Diode pkg:DIODE0.4 1,2
.MODEL 1N4305 D (IS=1.33N RS=4.2 N=1.7 BV=50 IBV=2.58U
+ CJO=2.65P VJ=0.75 M=0.333 TT=4.32N)

*1N4446 MCE 3-13-97
*Ref: National Discrete Products Databook, 1996
*20V 20mA Si Computer Diode pkg:DIODE0.4 1,2
.MODEL 1N4446 D (IS=28.4P RS=2.1 N=1.7 BV=20 IBV=25N
+ CJO=5.3P VJ=0.75 M=0.333 TT=5.76N)

*1N4447 MCE 3-13-97
*Ref: National Discrete Products Databook, 1996
*20V 20mA Si Computer Diode pkg:DIODE0.4 1,2
.MODEL 1N4447 D (IS=28.4P RS=2.1 N=1.7 BV=20 IBV=25N
+ CJO=5.3P VJ=0.75 M=0.333 TT=5.76N)

*1N4448 MCE 3-13-97
*Ref: National Discrete Products Databook, 1996
*20V 100mA Si Computer Diode pkg:DIODE0.4 1,2
.MODEL 1N4448 D (IS=142P RS=0.42 N=1.7 BV=20 IBV=110N
+ CJO=2.65P VJ=0.75 M=0.333 TT=5.76N)

*1N4454 MCE 3-13-97
*Ref: National Discrete Products Databook, 1996
*50V 10mA Si Computer Diode pkg:DIODE0.4 1,2
.MODEL 1N4454 D (IS=14.2P RS=4.2 N=1.7 BV=50 IBV=100N
+ CJO=2.65P VJ=0.75 M=0.333 TT=5.76N)

*1N4934 MCE
*400V 1A Si Rectifier pkg:DIODE0.4 1,2
.MODEL 1N4934 D(IS=2.54E-10 RS=6.874E-6 N=1.498 TT=1.086E-8 CJO=3.135E-11 
+ VJ=0.5581 M=0.4379 BV=100 IBV=0.0001 )

*1N4938 MCE 3-31-97
*Ref: National Discrete Products Databook, 1996
*175V 100mA Si HiVoltage Diode pkg:DIODE0.4 1,2
.MODEL 1N4938 D (IS=142P RS=0.42 N=1.7 BV=175 IBV=961N
+ CJO=6.63P VJ=0.75 M=0.333 TT=72N)

*1N5400 MCE
* 50V 3A Si Rectifier pkg:DO-201 1,2
.MODEL 1N5400 D(IS=2.68E-12 RS=0.00977 N=1.17 TT=1.44E-5 CJO=1.24E-10 
+ VJ=0.6 M=0.333 BV=66.6 IBV=1E-5 )

*1N5401 MCE
*100V 3A Si Rectifier pkg:DO-201 1,2
.MODEL 1N5401 D(IS=2.68E-12 RS=0.00731 N=1.17 TT=1.44E-5 CJO=1.24E-10 
+ VJ=0.6 M=0.333 BV=133.2 IBV=1E-5 )

*1N5402 MCE
*200V 3A Si Rectifier pkg:DO-201 1,2
.MODEL 1N5402 D(IS=2.68E-12 RS=0.00731 N=1.17 TT=1.44E-5 CJO=1.24E-10 
+ VJ=0.6 M=0.333 BV=266 IBV=1E-5 )

*1N5404 MCE
*400V 3A Si Rectifier pkg:DO-201 1,2
.MODEL 1N5404 D(IS=2.68E-12 RS=0.00731 N=1.17 TT=1.44E-5 CJO=1.24E-10 
+ VJ=0.6 M=0.333 BV=533 IBV=1E-5 )

*1N5406 MCE
*600V 3A Si Rectifier pkg:DO-201 1,2
.MODEL 1N5406 D(IS=2.68E-12 RS=0.00731 N=1.17 TT=1.44E-5 CJO=1.24E-10 
+ VJ=0.6 M=0.333 BV=900 IBV=1E-5 )
**********
*1N5407 MCE 8/5/97
*Ref: International Rectifier Digest '94
*800V 3000mA 3us Si Diode pkg:DIODE0.4 1,2
.MODEL 1N5407 D (IS=4.26N RS=14M N=1.7 BV=800 IBV=132U
+ CJO=125P VJ=0.75 M=0.333 TT=4.32U)
**********
*1N5408 MCE 8/5/97
*Ref: International Rectifier Digest '94
*1000V 3000mA 3us Si Diode pkg:DIODE0.4 1,2
.MODEL 1N5408 D (IS=4.26N RS=14M N=1.7 BV=1E+03 IBV=165U
+ CJO=125P VJ=0.75 M=0.333 TT=4.32U)

*===============================
*Schottky Diode Pinout: 1=A, 2=K
*===============================

*SKYDIODE
*Default Schottky Diode pkg:DIODE0.4 1,2
.MODEL SKYDIODE~ D(EG=0.69 XTI=2)

*11DQ03 MCE 7-17-95
*Ref: IR Power Semiconductors Product Digest '94
*MCE 30V 1.1A pkg:DIODE0.4 1,2
.MODEL 11DQ03 D(IS=5.18E-9 RS=0.146 N=0.878 TT=4.32E-6 CJO=1.18E-10 
+ VJ=0.75 M=0.333 EG=0.69 XTI=2 BV=30 IBV=6.01E-6 )

*11DQ04 MCE 7-17-95
*Ref: IR Power Semiconductors Product Digest '94
*MCE 40V 1.1A pkg:DIODE0.4 1,2
.MODEL 11DQ04 D(IS=5.18E-9 RS=0.146 N=0.878 TT=4.32E-6 CJO=1.18E-10 
+ VJ=0.75 M=0.333 EG=0.69 XTI=2 BV=40 IBV=8.02E-6 )

*11DQ05 MCE 7-17-95
*Ref: IR Power Semiconductors Product Digest '94
*MCE 50V 1.1A pkg:DIODE0.4 1,2
.MODEL 11DQ05 D(IS=5.2E-9 RS=0.15 N=0.9 TT=4.32E-6 CJO=1.14E-10 
+ VJ=0.75 M=0.333 EG=0.69 XTI=2 BV=50 IBV=1.006E-5 )

*11DQ06 MCE 7-17-95
*Ref: IR Power Semiconductors Product Digest '94
*MCE 60V 1.1A pkg:DIODE0.4 1,2
.MODEL 11DQ06 D(IS=5.2E-9 RS=0.15 N=0.9 TT=4.32E-6 CJO=1.14E-10 
+ VJ=0.75 M=0.333 EG=0.69 XTI=2 BV=60 IBV=1.207E-5 )

*11DQ09 MCE 7-17-95
*Ref: IR Power Semiconductors Product Digest '94
*MCE 90V 1.1A pkg:DIODE0.4 1,2
.MODEL 11DQ09 D(IS=3.49E-9 RS=0.097 N=1.31 TT=4.32E-6 CJO=6.9E-11 
+ VJ=0.75 M=0.333 EG=0.69 XTI=2 BV=90 IBV=1.22E-5 )

*11DQ10 MCE 7-17-95
*Ref: IR Power Semiconductors Product Digest '94
*MCE 100V 1.1A pkg:DIODE0.4 1,2
.MODEL 11DQ10 D(IS=3.49E-9 RS=0.097 N=1.31 TT=4.32E-6 CJO=6.9E-11 
+ VJ=0.75 M=0.333 EG=0.69 XTI=2 BV=100 IBV=1.35E-5 )

*1N5828 MCE 7-14-95
*Ref: IR Power Semiconductors Product Digest '94
*MCE 40V 30A pkg:DIODE0.4 1,2
.MODEL 1N5828 D(IS=5.07E-6 RS=0.0034 N=1.01 TT=4.32E-6 CJO=2.95E-9 
+ VJ=0.75 M=0.333 EG=0.69 XTI=2 BV=40 IBV=0.00785 )

*1N5834 MCE 7-14-95
*Ref: IR Power Semiconductors Product Digest '94
*MCE 40V 60A pkg:DIODE0.4 1,2
.MODEL 1N5834 D(IS=4.95E-9 RS=0.00278 N=0.67 TT=4.32E-6 CJO=3.94E-9 
+ VJ=0.75 M=0.333 EG=0.69 XTI=2 BV=40 IBV=0.00022 )

*1N6095 MCE 7-14-95
*Ref: IR Power Semiconductors Product Digest '94
*MCE 30V 25A pkg:DIODE0.4 1,2
.MODEL 1N6095 D(IS=1.14E-7 RS=0.00538 N=0.769 TT=4.32E-6 CJO=2.95E-9 
+ VJ=0.75 M=0.333 EG=0.69 XTI=2 BV=30 IBV=0.000133 )

*1N6096 MCE 7-14-95
*Ref: IR Power Semiconductors Product Digest '94
*MCE 40V 25A pkg:DIODE0.4 1,2
.MODEL 1N6096 D(IS=1.14E-7 RS=0.00538 N=0.769 TT=4.32E-6 CJO=2.95E-9 
+ VJ=0.75 M=0.333 EG=0.69 XTI=2 BV=40 IBV=0.00018 )

*1N6097 MCE 7-14-95
*Ref: IR Power Semiconductors Product Digest '94
*MCE 30V 50A pkg:DIODE0.4 1,2
.MODEL 1N6097 D(IS=1.04E-5 RS=0.0025 N=1.17 TT=4.32E-6 CJO=3.94E-9 
+ VJ=0.75 M=0.333 EG=0.69 XTI=2 BV=30 IBV=0.0121 )

*1N6098 MCE 7-14-95
*Ref: IR Power Semiconductors Product Digest '94
*MCE 40V 50A pkg:DIODE0.4 1,2
.MODEL 1N6098 D(IS=1.04E-5 RS=0.0025 N=1.17 TT=4.32E-6 CJO=3.94E-9 
+ VJ=0.75 M=0.333 EG=0.69 XTI=2 BV=40 IBV=0.0161 )

*1N6391 MCE 7-14-95
*Ref: IR Power Semiconductors Product Digest '94
*MCE 45V 25A pkg:DIODE0.4 1,2
.MODEL 1N6391 D(IS=0.000855 RS=0.00321 N=1.89 TT=4.32E-6 CJO=2.95E-9 
+ VJ=0.75 M=0.333 EG=0.69 XTI=2 BV=45 IBV=1.49 )

*1N6392 MCE 7-14-95
*Ref: IR Power Semiconductors Product Digest '94
*MCE 45V 60A pkg:DIODE0.4 1,2
.MODEL 1N6392 D(IS=9.86E-11 RS=0.00154 N=0.646 TT=4.32E-6 CJO=3.94E-9 
+ VJ=0.75 M=0.333 EG=0.69 XTI=2 BV=45 IBV=0.00015 )

*=====================================================
*Diode AKA pinout: 1=Anode1, 2=CommonCathode, 3=Anode2
*=====================================================

*BAV70 MCE 2-27-96
* 70V 200mA 6ns Si Dual Switching Diode pkg:SOT-23 2,1,3
.SUBCKT BAV70 1 2 3
D1 1 2 BAV70
D2 3 2 BAV70
.MODEL BAV70 D (IS=24.2N RS=42M N=2.18 BV=70 IBV=66U
+ CJO=1.11P VJ=.75 M=.333 TT=8.64N)
.ENDS BAV70

*===========================
*Zener Diode Pinout 1=A, 2=K
*===========================

*ZENER
*Default Zener 10V @ 10mA pkg:DIODE0.4 1,2
.MODEL ZENER~ D( BV=10 IBV=10E-3 )

*1N746
*Ref: Motorola
*3.3V 500mW Si Zener pkg:DIODE0.4 1,2
.MODEL 1N746 D(IS=1E-11 RS=13.65 N=1.27 TT=5E-8 CJO=5.826E-10 VJ=0.75 
+ M=0.33 BV=3.027 IBV=0.01 )

*1N747
*Ref: Motorola
*3.6V 500mW Si Zener pkg:DIODE0.4 1,2
.MODEL 1N747 D(IS=1E-11 RS=12.8 N=1.27 TT=5E-8 CJO=5.422E-10 VJ=0.75 
+ M=0.33 BV=3.344 IBV=0.01 )

*1N748
*Ref: Motorola
*3.9V 500mW Si Zener pkg:DIODE0.4 1,2
.MODEL 1N748 D(IS=1E-11 RS=11.84 N=1.27 TT=5E-8 CJO=5.076E-10 VJ=0.75 
+ M=0.33 BV=3.663 IBV=0.01 )

*1N749
*Ref: Motorola
*4.3V 500mW Si Zener pkg:DIODE0.4 1,2
.MODEL 1N749 D(IS=1E-11 RS=10.47 N=1.27 TT=5E-8 CJO=4.683E-10 VJ=0.75 
+ M=0.33 BV=4.091 IBV=0.01 )

*1N750
*Ref: Motorola
*4.7V 500mW Si Zener pkg:DIODE0.4 1,2
.MODEL 1N750 D(IS=1E-11 RS=9.066 N=1.27 TT=5E-8 CJO=4.351E-10 VJ=0.75 
+ M=0.33 BV=4.519 IBV=0.01 )

*1N751
*Ref: Motorola
*5.1V 500mW Si Zener pkg:DIODE0.4 1,2
.MODEL 1N751 D(IS=1E-11 RS=7.708 N=1.27 TT=5E-8 CJO=4.068E-10 VJ=0.75 
+ M=0.33 BV=4.946 IBV=0.01 )

*1N752
*Ref: Motorola
*5.6V 500mW Si Zener pkg:DIODE0.4 1,2
.MODEL 1N752 D(IS=1E-11 RS=6.168 N=1.27 TT=5E-8 CJO=3.766E-10 VJ=0.75 
+ M=0.33 BV=5.477 IBV=0.01 )

*1N753
*Ref: Motorola
*6.2V 500mW Si Zener pkg:DIODE0.4 1,2
.MODEL 1N753 D(IS=1E-11 RS=4.685 N=1.27 TT=5E-8 CJO=3.463E-10 VJ=0.75 
+ M=0.33 BV=6.106 IBV=0.01 )

*1N754
*Ref: Motorola
*6.8V 500mW Si Zener pkg:DIODE0.4 1,2
.MODEL 1N754 D(IS=1E-11 RS=3.721 N=1.27 TT=5E-8 CJO=3.209E-10 VJ=0.75 
+ M=0.33 BV=6.726 IBV=0.01 )

*1N755
*Ref: Motorola
*7.5V 500mW Si Zener pkg:DIODE0.4 1,2
.MODEL 1N755 D(IS=1E-11 RS=3.359 N=1.27 TT=5E-8 CJO=2.959E-10 VJ=0.75 
+ M=0.33 BV=7.433 IBV=0.01 )

*1N756
*Ref: Motorola
*8.2V 500mW Si Zener pkg:DIODE0.4 1,2
.MODEL 1N756 D(IS=1E-11 RS=3.858 N=1.27 TT=5E-8 CJO=2.749E-10 VJ=0.75 
+ M=0.33 BV=8.123 IBV=0.01 )

*1N757
*Ref: Motorola
*9.1V 500mW Si Zener pkg:DIODE0.4 1,2
.MODEL 1N757 D(IS=1E-11 RS=5.672 N=1.27 TT=5E-8 CJO=2.523E-10 VJ=0.75 
+ M=0.33 BV=8.987 IBV=0.01 )

*1N758
*Ref: Motorola
*10V 500mW Si Zener pkg:DIODE0.4 1,2
.MODEL 1N758 D(IS=1E-11 RS=8.483 N=1.27 TT=5E-8 CJO=2.334E-10 VJ=0.75 
+ M=0.33 BV=9.83 IBV=0.01 )

*1N759
*Ref: Motorola
*12V 500mW Si Zener pkg:DIODE0.4 1,2
.MODEL 1N759 D(IS=1E-11 RS=14.95 N=1.27 TT=5E-8 CJO=2.008E-10 VJ=0.75 
+ M=0.33 BV=11.7 IBV=0.01 )

*1N4728
*Ref: Motorola
*3.3V 1W Si Zener pkg:DIODE0.4 1,2
.MODEL 1N4728 D(IS=5.97E-16 RS=0.659 TT=5.01E-8 CJO=3.63E-10 VJ=0.75 
+ M=0.33 BV=3.251 IBV=0.076 )

*1N4729
*Ref: Motorola
*3.6V 1W Si Zener pkg:DIODE0.4 1,2
.MODEL 1N4729 D(IS=5.81E-16 RS=0.624 TT=5.01E-8 CJO=3.19E-10 VJ=0.75 
+ M=0.33 BV=3.558 IBV=0.069 )

*1N4730
*Ref: Motorola
*3.9V 1W Si Zener pkg:DIODE0.4 1,2
.MODEL 1N4730 D(IS=6.63E-16 RS=0.795 TT=5.01E-8 CJO=2.83E-10 VJ=0.75 
+ M=0.33 BV=3.851 IBV=0.064 )

*1N4731
*Ref: Motorola
*4.3V 1W Si Zener pkg:DIODE0.4 1,2
.MODEL 1N4731 D(IS=6.42E-16 RS=0.753 TT=5.01E-8 CJO=2.44E-10 VJ=0.75 
+ M=0.33 BV=4.258 IBV=0.058 )

*1N4732
*Ref: Motorola
*4.7V 1W Si Zener pkg:DIODE0.4 1,2
.MODEL 1N4732 D(IS=6.71E-16 RS=0.811 TT=5.01E-8 CJO=2.14E-10 VJ=0.75 
+ M=0.33 BV=4.659 IBV=0.053 )

*1N4733
*Ref: Motorola
*5.1V 1W Si Zener pkg:DIODE0.4 1,2
.MODEL 1N4733 D(IS=7.03E-16 RS=0.871 TT=5.01E-8 CJO=1.89E-10 VJ=0.75 
+ M=0.33 BV=5.059 IBV=0.049 )

*1N4734
*Ref: Motorola
*5.6V 1W Si Zener pkg:DIODE0.4 1,2
.MODEL 1N4734 D(IS=7.32E-16 RS=0.924 TT=5.01E-8 CJO=1.64E-10 VJ=0.75 
+ M=0.33 BV=5.561 IBV=0.045 )

*1N4735
*Ref: Motorola
*6.2V 1W Si Zener pkg:DIODE0.4 1,2
.MODEL 1N4735 D(IS=7.57E-16 RS=0.968 TT=5.01E-8 CJO=1.41E-10 VJ=0.75 
+ M=0.33 BV=6.163 IBV=0.041 )

*1N4736
*Ref: Motorola
*6.8V 1W Si Zener pkg:DIODE0.4 1,2
.MODEL 1N4736 D(IS=7.76E-16 RS=1 TT=5.01E-8 CJO=1.23E-10 VJ=0.75 
+ M=0.33 BV=6.766 IBV=0.037 )

*1N4737
*Ref: Motorola
*7.5V 1W Si Zener pkg:DIODE0.4 1,2
.MODEL 1N4737 D(IS=9.33E-16 RS=1.23 TT=5.01E-8 CJO=1.06E-10 VJ=0.75 
+ M=0.33 BV=7.461 IBV=0.034 )

*1N4738
*Ref: Motorola
*8.2V 1W Si Zener pkg:DIODE0.4 1,2
.MODEL 1N4738 D(IS=1.06E-15 RS=1.41 TT=5.01E-8 CJO=9.28E-11 VJ=0.75 
+ M=0.33 BV=8.16 IBV=0.031 )

*1N4739
*Ref: Motorola
*9.1V 1W Si Zener pkg:DIODE0.4 1,2
.MODEL 1N4739 D(IS=1.46E-15 RS=1.82 TT=5.01E-8 CJO=7.94E-11 VJ=0.75 
+ M=0.33 BV=9.053 IBV=0.028 )

*1N4740
*Ref: Motorola
*10V 1W Si Zener pkg:DIODE0.4 1,2
.MODEL 1N4740 D(IS=2.91E-15 RS=2.71 TT=5.01E-8 CJO=6.89E-11 VJ=0.75 
+ M=0.33 BV=9.937 IBV=0.025 )

*1N4741
*Ref: Motorola
*11V 1W Si Zener pkg:DIODE0.4 1,2
.MODEL 1N4741 D(IS=7.14E-15 RS=3.87 TT=5.01E-8 CJO=1.01E-10 M=0.33 
+ BV=10.91 IBV=0.023 )

*1N4742
*Ref: Motorola
*12V 1W Si Zener pkg:DIODE0.4 1,2
.MODEL 1N4742 D(IS=9.67E-15 RS=4.26 TT=5.01E-8 CJO=9.42E-11 M=0.33 
+ BV=11.91 IBV=0.021 )

*1N4743
*Ref: Motorola
*13V 1W Si Zener pkg:DIODE0.4 1,2
.MODEL 1N4743 D(IS=1.28E-14 RS=4.63 TT=5.01E-8 CJO=8.81E-11 M=0.33 
+ BV=12.91 IBV=0.019 )

*1N4744
*Ref: Motorola
*15V 1W Si Zener pkg:DIODE0.4 1,2
.MODEL 1N4744 D(IS=5.32E-14 RS=6.47 TT=5.01E-8 CJO=7.83E-11 M=0.33 
+ BV=14.89 IBV=0.017 )

*1N4745
*Ref: Motorola
*16V 1W Si Zener pkg:DIODE0.4 1,2
.MODEL 1N4745 D(IS=1.02E-13 RS=7.33 TT=5.01E-8 CJO=7.44E-11 M=0.33 
+ BV=15.89 IBV=0.0155 )

*1N4746
*Ref: Motorola
*18V 1W Si Zener pkg:DIODE0.4 1,2
.MODEL 1N4746 D(IS=4.19E-13 RS=9.15 TT=5.01E-8 CJO=6.78E-11 M=0.33 
+ BV=17.88 IBV=0.014 )

*1N4747
*Ref: Motorola
*20V 1W Si Zener pkg:DIODE0.4 1,2
.MODEL 1N4747 D(IS=1.65E-12 RS=10.9 TT=5.01E-8 CJO=6.25E-11 M=0.33 
+ BV=19.87 IBV=0.0125 )

*1N4748
*Ref: Motorola
*22V 1W Si Zener pkg:DIODE0.4 1,2
.MODEL 1N4748 D(IS=3.11E-12 RS=11.7 TT=5.01E-8 CJO=5.82E-11 M=0.33 
+ BV=21.87 IBV=0.0115 )

*1N4749
*Ref: Motorola
*24V 1W Si Zener pkg:DIODE0.4 1,2
.MODEL 1N4749 D(IS=5.71E-12 RS=12.5 TT=5.01E-8 CJO=5.46E-11 M=0.33 
+ BV=23.88 IBV=0.0105 )

*1N4750
*Ref: Motorola
*27V 1W Si Zener pkg:DIODE0.4 1,2
.MODEL 1N4750 D(IS=2.22E-10 RS=17.2 TT=5.01E-8 CJO=5.02E-11 M=0.33 
+ BV=26.84 IBV=0.0095 )

*1N4751
*Ref: Motorola
*30V 1W Si Zener pkg:DIODE0.4 1,2
.MODEL 1N4751 D(IS=2.67E-9 RS=21.9 TT=5.01E-8 CJO=4.66E-11 M=0.33 
+ BV=29.82 IBV=0.0085 )

*1N4752
*Ref: Motorola
*33V 1W Si Zener pkg:DIODE0.4 1,2
.MODEL 1N4752 D(IS=2.67E-9 RS=26.5 TT=5.01E-8 CJO=4.38E-11 M=0.33 
+ BV=32.81 IBV=0.0075 )

*1N4753
*Ref: Motorola
*36V 1W Si Zener pkg:DIODE0.4 1,2
.MODEL 1N4753 D(IS=2.67E-9 RS=31.3 TT=5.01E-8 CJO=4.14E-11 M=0.33 
+ BV=35.79 IBV=0.007 )

*1N4754
*Ref: Motorola
*39V 1W Si Zener pkg:DIODE0.4 1,2
.MODEL 1N4754 D(IS=2.67E-9 RS=36 TT=5.01E-8 CJO=3.93E-11 M=0.33 
+ BV=38.78 IBV=0.0065 )

*1N4755
*Ref: Motorola
*43V 1W Si Zener pkg:DIODE0.4 1,2
.MODEL 1N4755 D(IS=2.67E-9 RS=40.7 TT=5.01E-8 CJO=3.71E-11 M=0.33 
+ BV=42.77 IBV=0.006 )

*1N4756
*Ref: Motorola
*47V 1W Si Zener pkg:DIODE0.4 1,2
.MODEL 1N4756 D(IS=2.67E-9 RS=50.3 TT=5.01E-8 CJO=3.52E-11 M=0.33 
+ BV=46.74 IBV=0.0055 )

*1N4757
*Ref: Motorola
*51V 1W Si Zener pkg:DIODE0.4 1,2
.MODEL 1N4757 D(IS=2.67E-9 RS=59.8 TT=5.01E-8 CJO=3.36E-11 M=0.33 
+ BV=50.72 IBV=0.005 )

*1N4758
*Ref: Motorola
*56V 1W Si Zener pkg:DIODE0.4 1,2
.MODEL 1N4758 D(IS=2.67E-9 RS=69.2 TT=5.01E-8 CJO=3.19E-11 M=0.33 
+ BV=55.71 IBV=0.0045 )

*1N4759
*Ref: Motorola
*62V 1W Si Zener pkg:DIODE0.4 1,2
.MODEL 1N4759 D(IS=2.67E-9 RS=78.5 TT=5.01E-8 CJO=3.03E-11 M=0.33 
+ BV=61.71 IBV=0.004 )

*1N4760
*Ref: Motorola
*68V 1W Si Zener pkg:DIODE0.4 1,2
.MODEL 1N4760 D(IS=2.67E-9 RS=93 TT=5.01E-8 CJO=2.89E-11 M=0.33 
+ BV=67.68 IBV=0.0037 )

*1N4761
*Ref: Motorola
*75V 1W Si Zener pkg:DIODE0.4 1,2
.MODEL 1N4761 D(IS=2.67E-9 RS=117 TT=5.01E-8 CJO=2.76E-11 M=0.33 
+ BV=74.65 IBV=0.0033 )

*1N4762
*Ref: Motorola
*82V 1W Si Zener pkg:DIODE0.4 1,2
.MODEL 1N4762 D(IS=2.67E-9 RS=141 TT=5.01E-8 CJO=2.65E-11 M=0.33 
+ BV=81.61 IBV=0.003 )

*1N4763
*Ref: Motorola
*91V 1W Si Zener pkg:DIODE0.4 1,2
.MODEL 1N4763 D(IS=2.67E-9 RS=190 TT=5.01E-8 CJO=2.54E-11 M=0.33 
+ BV=90.51 IBV=0.0028 )

*1N4764
*Ref: Motorola
*100V 1W Si Zener pkg:DIODE0.4 1,2
.MODEL 1N4764 D(IS=2.67E-9 RS=289 TT=5.01E-8 CJO=2.45E-11 M=0.33 
+ BV=99.32 IBV=0.0025 )
*     TERMINALS:  A K
D1 1 2  DF
DZ 3 1  DR
VZ 2 3  1.975
.MODEL DF D (IS=1.76N RS=0.12 N=1.7 CJO=172P VJ=0.75 M=0.33 TT=50.1N)
.MODEL DR D (IS=1.2M RS=30 N=14)
.ENDS DDZ23C2V7
*    TERMINALS:  A K
D1 1 2  DF
DZ 3 1  DR
VZ 2 3  2.275
.MODEL DF D (IS=1.76N RS=0.12 N=1.7 CJO=147P VJ=0.75 M=0.33 TT=50.1N)
.MODEL DR D (IS=1.2M RS=30 N=14)
.ENDS DDZ23C3
*    TERMINALS:  A K
D1 1 2  DF
DZ 3 1  DR
VZ 2 3  2.591
.MODEL DF D (IS=1.76N RS=0.12 N=1.7 CJO=127P VJ=0.75 M=0.33 TT=50.1N)
.MODEL DR D (IS=1.11M RS=28.5 N=13)
.ENDS DDZ23C3V3
*    TERMINALS:  A K
D1 1 2  DF
DZ 3 1  DR
VZ 2 3  2.891
.MODEL DF D (IS=1.76N RS=0.12 N=1.7 CJO=112P VJ=0.75 M=0.33 TT=50.1N)
.MODEL DR D (IS=1.11M RS=28.5 N=13)
.ENDS DDZ23C3V6
*    TERMINALS:  A K
D1 1 2  DF
DZ 3 1  DR
VZ 2 3  3.207
.MODEL DF D (IS=1.76N RS=0.12 N=1.7 CJO=99.1P VJ=0.75 M=0.33 TT=50.1N)
.MODEL DR D (IS=1.02M RS=27 N=12)
.ENDS DDZ23C3V9
*    TERMINALS:  A K
D1 1 2  DF
DZ 3 1  DR
VZ 2 3  3.707
.MODEL DF D (IS=1.76N RS=0.12 N=1.7 CJO=82.7P VJ=0.75 M=0.33 TT=50.1N)
.MODEL DR D (IS=1.02M RS=27 N=12)
.ENDS DDZ23C4V4
*    TERMINALS:  A K
D1 1 2  DF
DZ 3 1  DR
VZ 2 3  4.037
.MODEL DF D (IS=1.76N RS=0.12 N=1.7 CJO=74.9P VJ=0.75 M=0.33 TT=50.1N)
.MODEL DR D (IS=838U RS=24 N=11)
.ENDS DDZ23C4V7
*    TERMINALS:  A K
D1 1 2  DF
DZ 3 1  DR
VZ 2 3  4.492
.MODEL DF D (IS=1.76N RS=0.12 N=1.7 CJO=66.2P VJ=0.75 M=0.33 TT=50.1N)
.MODEL DR D (IS=462U RS=18 N=8.1)
.ENDS DDZ23C5V1
*    TERMINALS:  A K
D1 1 2  DF
DZ 3 1  DR
VZ 2 3  5.036
.MODEL DF D (IS=1.76N RS=0.12 N=1.7 CJO=57.6P VJ=0.75 M=0.33 TT=50.1N)
.MODEL DR D (IS=141U RS=12 N=5.4)
.ENDS DDZ23C5V6
*    TERMINALS:  A K
D1 1 2  DF
DZ 3 1  DR
VZ 2 3  5.685
.MODEL DF D (IS=1.76N RS=0.12 N=1.7 CJO=49.4P VJ=0.75 M=0.33 TT=50.1N)
.MODEL DR D (IS=3.12N RS=3 N=1.4)
.ENDS DDZ23C6V2
*    TERMINALS:  A K
D1 1 2  DF
DZ 3 1  DR
VZ 2 3  6.278
.MODEL DF D (IS=1.76N RS=0.12 N=1.7 CJO=43P VJ=0.75 M=0.33 TT=50.1N)
.MODEL DR D (IS=365N RS=4.5 N=2)
.ENDS DDZ23C6V8
*    TERMINALS:  A K
D1 1 2  DF
DZ 3 1  DR
VZ 2 3  6.978
.MODEL DF D (IS=1.76N RS=0.12 N=1.7 CJO=37.1P VJ=0.75 M=0.33 TT=50.1N)
.MODEL DR D (IS=365N RS=4.5 N=2)
.ENDS DDZ23C7V5
*    TERMINALS:  A K
D1 1 2  DF
DZ 3 1  DR
VZ 2 3  7.678
.MODEL DF D (IS=1.76N RS=0.12 N=1.7 CJO=32.5P VJ=0.75 M=0.33 TT=50.1N)
.MODEL DR D (IS=365N RS=4.5 N=2)
.ENDS DDZ23C8V2
*    TERMINALS:  A K
D1 1 2  DF
DZ 3 1  DR
VZ 2 3  8.578
.MODEL DF D (IS=1.76N RS=0.12 N=1.7 CJO=27.8P VJ=0.75 M=0.33 TT=50.1N)
.MODEL DR D (IS=365N RS=4.5 N=2)
.ENDS DDZ23C9V1
*    TERMINALS:  A K
D1 1 2  DF
DZ 3 1  DR
VZ 2 3  9.47
.MODEL DF D (IS=1.76N RS=0.12 N=1.7 CJO=24.1P VJ=0.75 M=0.33 TT=50.1N)
.MODEL DR D (IS=3.95U RS=6 N=2.7)
.ENDS DDZ23C10
*    TERMINALS:  A K
D1 1 2  DF
DZ 3 1  DR
VZ 2 3  10.47
.MODEL DF D (IS=1.76N RS=0.12 N=1.7 CJO=45.2P VJ=1 M=0.33 TT=50.1N)
.MODEL DR D (IS=3.95U RS=6 N=2.7)
.ENDS DDZ23C11
*    TERMINALS:  A K
D1 1 2  DF
DZ 3 1  DR
VZ 2 3  11.46
.MODEL DF D (IS=1.76N RS=0.12 N=1.7 CJO=42.7P VJ=1 M=0.33 TT=50.1N)
.MODEL DR D (IS=16.5U RS=7.5 N=3.4)
.ENDS DDZ23C12
*    TERMINALS:  A K
D1 1 2  DF
DZ 3 1  DR
VZ 2 3  12.45
.MODEL DF D (IS=1.76N RS=0.12 N=1.7 CJO=40.6P VJ=1 M=0.33 TT=50.1N)
.MODEL DR D (IS=42.7U RS=9 N=4.1)
.ENDS DDZ23C13
*    TERMINALS:  A K
D1 1 2  DF
DZ 3 1  DR
VZ 2 3  14.45
.MODEL DF D (IS=1.76N RS=0.12 N=1.7 CJO=37.2P VJ=1 M=0.33 TT=50.1N)
.MODEL DR D (IS=42.7U RS=9 N=4.1)
.ENDS DDZ23C15
*    TERMINALS:  A K
D1 1 2  DF
DZ 3 1  DR
VZ 2 3  15.44
.MODEL DF D (IS=1.76N RS=0.12 N=1.7 CJO=35.8P VJ=1 M=0.33 TT=50.1N)
.MODEL DR D (IS=141U RS=12 N=5.4)
.ENDS DDZ23C16
*    TERMINALS:  A K
D1 1 2  DF
DZ 3 1  DR
VZ 2 3  17.43
.MODEL DF D (IS=1.76N RS=0.12 N=1.7 CJO=33.5P VJ=1 M=0.33 TT=50.1N)
.MODEL DR D (IS=209U RS=13.5 N=6.1)
.ENDS DDZ23C18
*    TERMINALS:  A K
D1 1 2  DF
DZ 3 1  DR
VZ 2 3  19.4
.MODEL DF D (IS=1.76N RS=0.12 N=1.7 CJO=31.6P VJ=1 M=0.33 TT=50.1N)
.MODEL DR D (IS=372U RS=16.5 N=7.4)
.ENDS DDZ23C20
*    TERMINALS:  A K
D1 1 2  DF
DZ 3 1  DR
VZ 2 3  21.4
.MODEL DF D (IS=1.76N RS=0.12 N=1.7 CJO=30.1P VJ=1 M=0.33 TT=50.1N)
.MODEL DR D (IS=372U RS=16.5 N=7.4)
.ENDS DDZ23C22
*    TERMINALS:  A K
D1 1 2  DF
DZ 3 1  DR
VZ 2 3  23.37
.MODEL DF D (IS=1.76N RS=0.12 N=1.7 CJO=28.9P VJ=1 M=0.33 TT=50.1N)
.MODEL DR D (IS=650U RS=21 N=9.5)
.ENDS DDZ23C24
*    TERMINALS:  A K
D1 1 2  DF
DZ 3 1  DR
VZ 2 3  26.45
.MODEL DF D (IS=1.76N RS=0.12 N=1.7 CJO=27.3P VJ=1 M=0.33 TT=50.1N)
.MODEL DR D (IS=23U RS=24 N=4.3)
.ENDS DDZ23C27
*    TERMINALS:  A K
D1 1 2  DF
DZ 3 1  DR
VZ 2 3  29.45
.MODEL DF D (IS=1.76N RS=0.12 N=1.7 CJO=26.1P VJ=1 M=0.33 TT=50.1N)
.MODEL DR D (IS=23U RS=24 N=4.3)
.ENDS DDZ23C30
*    TERMINALS:  A K
D1 1 2  DF
DZ 3 1  DR
VZ 2 3  32.45
.MODEL DF D (IS=1.76N RS=0.12 N=1.7 CJO=25.1P VJ=1 M=0.33 TT=50.1N)
.MODEL DR D (IS=23U RS=24 N=4.3)
.ENDS DDZ23C33
*    TERMINALS:  A K
D1 1 2  DF
DZ 3 1  DR
VZ 2 3  35.44
.MODEL DF D (IS=1.76N RS=0.12 N=1.7 CJO=24.2P VJ=1 M=0.33 TT=50.1N)
.MODEL DR D (IS=37.8U RS=27 N=4.9)
.ENDS DDZ23C36
*    TERMINALS:  A K
D1 1 2  DF
DZ 3 1  DR
VZ 2 3  38.41
.MODEL DF D (IS=1.76N RS=0.12 N=1.7 CJO=23.5P VJ=1 M=0.33 TT=50.1N)
.MODEL DR D (IS=128U RS=39 N=7)
.ENDS DDZ23C39
*    TERMINALS:  A K
D1 1 2  DF
DZ 3 1  DR
VZ 2 3  42.39
.MODEL DF D (IS=1.76N RS=0.12 N=1.7 CJO=22.7P VJ=1 M=0.33 TT=50.1N)
.MODEL DR D (IS=185U RS=45 N=8.1)
.ENDS DDZ23C43
*    TERMINALS:  A K
D1 1 2  DF
DZ 3 1  DR
VZ 2 3  46.37
.MODEL DF D (IS=1.76N RS=0.12 N=1.7 CJO=22.1P VJ=1 M=0.33 TT=50.1N)
.MODEL DR D (IS=245U RS=51 N=9.2)
.ENDS DDZ23C47
*    TERMINALS:  A K
D1 1 2  DF
DZ 3 1  DR
VZ 2 3  50.36
.MODEL DF D (IS=1.76N RS=0.12 N=1.7 CJO=21.5P VJ=1 M=0.33 TT=50.1N)
.MODEL DR D (IS=275U RS=54 N=9.7)
.ENDS DDZ23C51
*    TERMINALS:  A K
D1 1 2  DF
DZ 3 1  DR
VZ 2 3  3.039
.MODEL DF D (IS=5.02N RS=42M N=1.7 CJO=283P VJ=0.75 M=0.33 TT=50.1N)
.MODEL DR D (IS=36M RS=2.1 N=19)
.ENDS DDZ89C3V9
*    TERMINALS:  A K
D1 1 2  DF
DZ 3 1  DR
VZ 2 3  3.439
.MODEL DF D (IS=5.02N RS=42M N=1.7 CJO=244P VJ=0.75 M=0.33 TT=50.1N)
.MODEL DR D (IS=36M RS=2.1 N=19)
.ENDS DDZ89C4V3
*    TERMINALS:  A K
D1 1 2  DF
DZ 3 1  DR
VZ 2 3  3.839
.MODEL DF D (IS=5.02N RS=42M N=1.7 CJO=214P VJ=0.75 M=0.33 TT=50.1N)
.MODEL DR D (IS=36M RS=2.1 N=19)
.ENDS DDZ89C4V7
*    TERMINALS:  A K
D1 1 2  DF
DZ 3 1  DR
VZ 2 3  4.375
.MODEL DF D (IS=5.02N RS=42M N=1.7 CJO=189P VJ=0.75 M=0.33 TT=50.1N)
.MODEL DR D (IS=24M RS=1.5 N=14)
.ENDS DDZ89C5V1
*    TERMINALS:  A K
D1 1 2  DF
DZ 3 1  DR
VZ 2 3  5.036
.MODEL DF D (IS=5.02N RS=42M N=1.7 CJO=165P VJ=0.75 M=0.33 TT=50.1N)
.MODEL DR D (IS=2.81M RS=0.6 N=5.4)
.ENDS DDZ89C5V6
*    TERMINALS:  A K
D1 1 2  DF
DZ 3 1  DR
VZ 2 3  5.636
.MODEL DF D (IS=5.02N RS=42M N=1.7 CJO=141P VJ=0.75 M=0.33 TT=50.1N)
.MODEL DR D (IS=2.81M RS=0.6 N=5.4)
.ENDS DDZ89C6V2
*    TERMINALS:  A K
D1 1 2  DF
DZ 3 1  DR
VZ 2 3  6.236
.MODEL DF D (IS=5.02N RS=42M N=1.7 CJO=123P VJ=0.75 M=0.33 TT=50.1N)
.MODEL DR D (IS=2.81M RS=0.6 N=5.4)
.ENDS DDZ89C6V8
*    TERMINALS:  A K
D1 1 2  DF
DZ 3 1  DR
VZ 2 3  6.936
.MODEL DF D (IS=5.02N RS=42M N=1.7 CJO=106P VJ=0.75 M=0.33 TT=50.1N)
.MODEL DR D (IS=2.81M RS=0.6 N=5.4)
.ENDS DDZ89C7V5
*    TERMINALS:  A K
D1 1 2  DF
DZ 3 1  DR
VZ 2 3  7.636
.MODEL DF D (IS=5.02N RS=42M N=1.7 CJO=92.8P VJ=0.75 M=0.33 TT=50.1N)
.MODEL DR D (IS=2.81M RS=0.6 N=5.4)
.ENDS DDZ89C8V2
*    TERMINALS:  A K
D1 1 2  DF
DZ 3 1  DR
VZ 2 3  8.536
.MODEL DF D (IS=5.02N RS=42M N=1.7 CJO=79.4P VJ=0.75 M=0.33 TT=50.1N)
.MODEL DR D (IS=1.41M RS=1.2 N=5.4)
.ENDS DDZ89C9V1
*    TERMINALS:  A K
D1 1 2  DF
DZ 3 1  DR
VZ 2 3  9.436
.MODEL DF D (IS=5.02N RS=42M N=1.7 CJO=68.9P VJ=0.75 M=0.33 TT=50.1N)
.MODEL DR D (IS=1.41M RS=1.2 N=5.4)
.ENDS DDZ89C10
*    TERMINALS:  A K
D1 1 2  DF
DZ 3 1  DR
VZ 2 3  10.37
.MODEL DF D (IS=5.02N RS=42M N=1.7 CJO=101P VJ=1 M=0.33 TT=50.1N)
.MODEL DR D (IS=6.5M RS=2.1 N=9.5)
.ENDS DDZ89C11
*    TERMINALS:  A K
D1 1 2  DF
DZ 3 1  DR
VZ 2 3  11.37
.MODEL DF D (IS=5.02N RS=42M N=1.7 CJO=94.2P VJ=1 M=0.33 TT=50.1N)
.MODEL DR D (IS=6.5M RS=2.1 N=9.5)
.ENDS DDZ89C12
*    TERMINALS:  A K
D1 1 2  DF
DZ 3 1  DR
VZ 2 3  12.27
.MODEL DF D (IS=5.02N RS=42M N=1.7 CJO=88.1P VJ=1 M=0.33 TT=50.1N)
.MODEL DR D (IS=12M RS=3 N=14)
.ENDS DDZ89C13
*    TERMINALS:  A K
D1 1 2  DF
DZ 3 1  DR
VZ 2 3  14.27
.MODEL DF D (IS=5.02N RS=42M N=1.7 CJO=78.3P VJ=1 M=0.33 TT=50.1N)
.MODEL DR D (IS=12M RS=3 N=14)
.ENDS DDZ89C15
*    TERMINALS:  A K
D1 1 2  DF
DZ 3 1  DR
VZ 2 3  15.35
.MODEL DF D (IS=5.02N RS=42M N=1.7 CJO=74.4P VJ=1 M=0.33 TT=50.1N)
.MODEL DR D (IS=3.72M RS=4.5 N=10)
.ENDS DDZ89C16
*    TERMINALS:  A K
D1 1 2  DF
DZ 3 1  DR
VZ 2 3  17.35
.MODEL DF D (IS=5.02N RS=42M N=1.7 CJO=67.8P VJ=1 M=0.33 TT=50.1N)
.MODEL DR D (IS=3.72M RS=4.5 N=10)
.ENDS DDZ89C18
*    TERMINALS:  A K
D1 1 2  DF
DZ 3 1  DR
VZ 2 3  19.35
.MODEL DF D (IS=5.02N RS=42M N=1.7 CJO=62.5P VJ=1 M=0.33 TT=50.1N)
.MODEL DR D (IS=3.72M RS=4.5 N=10)
.ENDS DDZ89C20
*    TERMINALS:  A K
D1 1 2  DF
DZ 3 1  DR
VZ 2 3  21.35
.MODEL DF D (IS=5.02N RS=42M N=1.7 CJO=58.2P VJ=1 M=0.33 TT=50.1N)
.MODEL DR D (IS=3.72M RS=4.5 N=10)
.ENDS DDZ89C22
*    TERMINALS:  A K
D1 1 2  DF
DZ 3 1  DR
VZ 2 3  23.35
.MODEL DF D (IS=5.02N RS=42M N=1.7 CJO=54.6P VJ=1 M=0.33 TT=50.1N)
.MODEL DR D (IS=3.72M RS=4.5 N=10)
.ENDS DDZ89C24
*    TERMINALS:  A K
D1 1 2  DF
DZ 3 1  DR
VZ 2 3  26.35
.MODEL DF D (IS=5.02N RS=42M N=1.7 CJO=50.2P VJ=1 M=0.33 TT=50.1N)
.MODEL DR D (IS=3.72M RS=4.5 N=10)
.ENDS DDZ89C27
*    TERMINALS:  A K
D1 1 2  DF
DZ 3 1  DR
VZ 2 3  29.35
.MODEL DF D (IS=5.02N RS=42M N=1.7 CJO=46.7P VJ=1 M=0.33 TT=50.1N)
.MODEL DR D (IS=3.72M RS=4.5 N=10)
.ENDS DDZ89C30
*    TERMINALS:  A K
D1 1 2  DF
DZ 3 1  DR
VZ 2 3  32.35
.MODEL DF D (IS=5.02N RS=42M N=1.7 CJO=43.8P VJ=1 M=0.33 TT=50.1N)
.MODEL DR D (IS=3.72M RS=4.5 N=10)
.ENDS DDZ89C33
*    TERMINALS:  A K
D1 1 2  DF
DZ 3 1  DR
VZ 2 3  35.34
.MODEL DF D (IS=5.02N RS=42M N=1.7 CJO=41.4P VJ=1 M=0.33 TT=50.1N)
.MODEL DR D (IS=1.68M RS=12 N=11)
.ENDS DDZ89C36
*    TERMINALS:  A K
D1 1 2  DF
DZ 3 1  DR
VZ 2 3  38.34
.MODEL DF D (IS=5.02N RS=42M N=1.7 CJO=39.4P VJ=1 M=0.33 TT=50.1N)
.MODEL DR D (IS=1.68M RS=12 N=11)
.ENDS DDZ89C39
*    TERMINALS:  A K
D1 1 2  DF
DZ 3 1  DR
VZ 2 3  42.31
.MODEL DF D (IS=5.02N RS=42M N=1.7 CJO=37.1P VJ=1 M=0.33 TT=50.1N)
.MODEL DR D (IS=2.04M RS=13.5 N=12)
.ENDS DDZ89C43
*    TERMINALS:  A K
D1 1 2  DF
DZ 3 1  DR
VZ 2 3  46.31
.MODEL DF D (IS=5.02N RS=42M N=1.7 CJO=35.2P VJ=1 M=0.33 TT=50.1N)
.MODEL DR D (IS=2.04M RS=13.5 N=12)
.ENDS DDZ89C47
*    TERMINALS:  A K
D1 1 2  DF
DZ 3 1  DR
VZ 2 3  50.21
.MODEL DF D (IS=5.02N RS=42M N=1.7 CJO=33.6P VJ=1 M=0.33 TT=50.1N)
.MODEL DR D (IS=3.04M RS=18 N=16)
.ENDS DDZ89C51
*    TERMINALS:  A K
D1 1 2  DF
DZ 3 1  DR
VZ 2 3  55.21
.MODEL DF D (IS=5.02N RS=42M N=1.7 CJO=32P VJ=1 M=0.33 TT=50.1N)
.MODEL DR D (IS=3.04M RS=18 N=16)
.ENDS DDZ89C56
*    TERMINALS:  A K
D1 1 2  DF
DZ 3 1  DR
VZ 2 3  61.07
.MODEL DF D (IS=5.02N RS=42M N=1.7 CJO=30.3P VJ=1 M=0.33 TT=50.1N)