*2N3796  MCE  7/6/95
*Assumes default L=100U W=100U
*MCE 25V  20mA 150 ohm
.MODEL M2N3796 NMOS (LEVEL=1 VTO=-3 KP=960U GAMMA=3.72
+ PHI=.75 LAMBDA=4M RD=21 RS=21 IS=10F PB=.8 MJ=.46
+ CBD=13.2P CBS=15.9P CGSO=6N CGDO=5N CGBO=39N)

*2N3797  MCE  7/6/95
*Assumes default L=100U W=100U
*MCE 25V  20mA 150 ohm
.MODEL M2N3797 NMOS (LEVEL=1 VTO=-3 KP=1.8M GAMMA=3.72
+ PHI=.75 LAMBDA=7.5M RD=21 RS=21 IS=10F PB=.8 MJ=.46
+ CBD=13.2P CBS=15.9P CGSO=6N CGDO=5N CGBO=39N)
