*==============================================
*OPAMP5 pinout: +IN, -IN, +V, -V, OUT
*Copyright (c) 1996 MicroCode Engineering, Inc.
*All Rights Reserved
*
*See other copyright notices at end of file.
*==============================================

*OPAMP5
*IDEAL Sngl OpAmp OpenLoopGain=100k pkg:DIP8 3,2,7,4,6
.SUBCKT OPAMP5 1 2 3 4 5
RIN 3 4 1G
EGAIN 5 0 1 2 1E5
R1 1 2 1k
.ENDS OPAMP5

*====================================================
*LF347
*Quad WideBW JFET OpAmp pkg:DIP14 (A:3,2,4,11,1)(B:5,6,4,11,7)(C:10,9,4,11,8)(D:12,13,4,11,14)
.SUBCKT LF347 1 2 3 4 5
  C1   11 12 3.498E-12
  C2    6  7 15E-12
  DC    5 53 DX
  DE   54  5 DX
  DLP  90 91 DX
  DLN  92 90 DX
  DP    4  3 DX
  BGND 99  0 V=V(3)*.5 + V(4)*.5
  BB    7 99 I=I(VB)*14.15E6 - I(VC)*10E6 + I(VE)*10E6 +
+              I(VLP)*10E6 - I(VLN)*10E6
  GA    6  0 11 12 282.8E-6
  GCM   0  6 10 99 1.59E-9
  ISS   3 10 DC 195.0E-6
  HLIM 90  0 VLIM 1K
  J1   11  2 10 JX
  J2   12  1 10 JX
  R2    6  9 100E3
  RD1   4 11 3.536E3
  RD2   4 12 3.536E3
  RO1   8  5 50
  RO2   7 99 25
  RP    3  4 15E3
  RSS  10 99 1.026E6
  VB    9  0 DC 0
  VC    3 53 DC 2.2
  VE   54  4 DC 2.2
  VLIM  7  8 DC 0
  VLP  91  0 DC 25
  VLN   0 92 DC 25
.MODEL DX D(IS=800E-18)
.MODEL JX PJF(IS=25E-12 BETA=235.1E-6 VTO=-1)
.ENDS LF347

*====================================================
*LF351
*Sngl WideBW JFET OpAmp pkg:DIP8 3,2,7,4,6. pkg:CAN8 3,2,7,4,6.
.SUBCKT LF351 1 2 3 4 5
  C1   11 12 3.498E-12
  C2    6  7 15E-12
  DC    5 53 DX
  DE   54  5 DX
  DLP  90 91 DX
  DLN  92 90 DX
  DP    4  3 DX
  BGND 99  0 V=V(3)*.5 + V(4)*.5
  BB    7 99 I=I(VB)*28.29E6 - I(VC)*30E6 + I(VE)*30E6 +
+              I(VLP)*30E6 - I(VLN)*30E6
  GA    6  0 11 12 282.8E-6
  GCM   0  6 10 99 1.59E-9
  ISS   3 10 DC 195E-6
  HLIM 90  0 VLIM 1K
  J1   11  2 10 JX
  J2   12  1 10 JX
  R2    6  9 100E3
  RD1   4 11 3.536E3
  RD2   4 12 3.536E3
  RO1   8  5 50
  RO2   7 99 25
  RP    3  4 15E3
  RSS  10 99 1.026E6
  VB    9  0 DC 0
  VC    3 53 DC 2.2
  VE   54  4 DC 2.2
  VLIM  7  8 DC 0
  VLP  91  0 DC 30
  VLN   0 92 DC 30
.MODEL DX D(IS=800E-18)
.MODEL JX PJF(IS=12.5E-12 BETA=250.1E-6 VTO=-1)
.ENDS LF351

*====================================================
*LF353
*Dual WideBW JFET OpAmp pkg:DIP8 (A:3,2,8,4,1)(B:5,6,8,4,7)
.SUBCKT LF353 1 2 3 4 5
  C1   11 12 3.498E-12
  C2    6  7 15E-12
  DC    5 53 DX
  DE   54  5 DX
  DLP  90 91 DX
  DLN  92 90 DX
  DP    4  3 DX
  BGND 99  0 V=V(3)*.5 + V(4)*.5
  BB    7 99 I=I(VB)*28.29E6 - I(VC)*30E6 + I(VE)*30E6 +
+              I(VLP)*30E6 - I(VLN)*30E6
  GA    6  0 11 12 282.8E-6
  GCM   0  6 10 99 1.59E-9
  ISS   3 10 DC 195E-6
  HLIM 90  0 VLIM 1K
  J1   11  2 10 JX
  J2   12  1 10 JX
  R2    6  9 100E3
  RD1   4 11 3.536E3
  RD2   4 12 3.536E3
  RO1   8  5 50
  RO2   7 99 11.62
  RP    3  4 15E3
  RSS  10 99 1.026E6
  VB    9  0 DC 0
  VC    3 53 DC 2.2
  VE   54  4 DC 2.2
  VLIM  7  8 DC 0
  VLP  91  0 DC 30
  VLN   0 92 DC 30
.MODEL DX D(IS=800E-18)
.MODEL JX PJF(IS=12.5E-12 BETA=250.1E-6 VTO=-1)
.ENDS LF353

*====================================================
*LF411C
*Sngl LoOffset LoDrift JFET OpAmp pkg:DIP8 3,2,8,4,6. pkg:CAN8 3,2,8,4,6.
.SUBCKT LF411C 1 2 3 4 5
  C1   11 12 3.498E-12
  C2    6  7 15E-12
  DC    5 53 DX
  DE   54  5 DX
  DLP  90 91 DX
  DLN  92 90 DX
  DP    4  3 DX
  BGND 99  0 V=V(3)*.5 + V(4)*.5
  BB    7 99 I=I(VB)*28.29E6 - I(VC)*30E6 + I(VE)*30E6 +
+              I(VLP)*30E6 - I(VLN)*30E6
  GA    6  0 11 12 282.8E-6
  GCM   0  6 10 99 1.59E-9
  ISS   3 10 DC 195E-6
  HLIM 90  0 VLIM 1K
  J1   11  2 10 JX
  J2   12  1 10 JX
  R2    6  9 100E3
  RD1   4 11 3.536E3
  RD2   4 12 3.536E3
  RO1   8  5 50
  RO2   7 99 25
  RP    3  4 15E3
  RSS  10 99 1.026E6
  VB    9  0 DC 0
  VC    3 53 DC 2.2
  VE   54  4 DC 2.2
  VLIM  7  8 DC 0
  VLP  91  0 DC 30
  VLN   0 92 DC 30
.MODEL DX D(IS=800E-18)
.MODEL JX PJF(IS=12.5E-12 BETA=250.1E-6 VTO=-1)
.ENDS LF411C

*====================================================
*LF412C
*Dual LoOffset LoDrift JFET OpAmp pkg:DIP8 (A:3,2,8,4,1)(B:5,6,8,4,7)
.SUBCKT LF412C 1 2 3 4 5
  C1   11 12 3.498E-12
  C2    6  7 15E-12
  DC    5 53 DX
  DE   54  5 DX
  DLP  90 91 DX
  DLN  92 90 DX
  DP    4  3 DX
  BGND 99  0 V=V(3)*.5 + V(4)*.5
  BB    7 99 I=I(VB)*28.29E6 - I(VC)*30E6 + I(VE)*30E6 +
+              I(VLP)*30E6 - I(VLN)*30E6
  GA    6  0 11 12 282.8E-6
  GCM   0  6 10 99 1.59E-9
  ISS   3 10 DC 195E-6
  HLIM 90  0 VLIM 1K
  J1   11  2 10 JX
  J2   12  1 10 JX
  R2    6  9 100E3
  RD1   4 11 3.536E3
  RD2   4 12 3.536E3
  RO1   8  5 50
  RO2   7 99 25
  RP    3  4 15E3
  RSS  10 99 1.026E6
  VB    9  0 DC 0
  VC    3 53 DC 2.2
  VE   54  4 DC 2.2
  VLIM  7  8 DC 0
  VLP  91  0 DC 30
  VLN   0 92 DC 30
.MODEL DX D(IS=800E-18)
.MODEL JX PJF(IS=12.5E-12 BETA=250.1E-6 VTO=-1)
.ENDS LF412C

*====================================================
*LM307
*Sngl GenPurpose OpAmp pkg:DIP8 3,2,7,4,6. pkg:CAN8 3,2,7,4,6.
.SUBCKT LM307 1 2 3 4 5
  C1   11 12 8.887E-12
  C2    6  7 30E-12
  DC    5 53 DX
  DE   54  5 DX
  DLP  90 91 DX
  DLN  92 90 DX
  DP    4  3 DX
  BGND 99  0 V=V(3)*.5 + V(4)*.5
  BB    7 99 I=I(VB)*42.44E6 - I(VC)*40E6 + I(VE)*40E6 +
+              I(VLP)*40E6 - I(VLN)*40E6
  GA    6  0 11 12 188.5E-6
  GCM   0  6 10 99 3.352E-9
  IEE  10  4 DC 15.14E-6
  HLIM 90  0 VLIM 1K
  Q1   11  2 13 QX
  Q2   12  1 14 QX
  R2    6  9 100E3
  RC1   3 11 5.305E3
  RC2   3 12 5.305E3
  RE1  13 10 1.839E3
  RE2  14 10 1.839E3
  REE  10 99 13.21E6
  RO1   8  5 50
  RO2   7 99 25
  RP    3  4 16.81E3
  VB    9  0 DC 0
  VC    3 53 DC 2.6
  VE   54  4 DC 2.6
  VLIM  7  8 DC 0
  VLP  91  0 DC 25
  VLN   0 92 DC 25
.MODEL DX D(IS=800E-18)
.MODEL QX NPN(IS=800E-18 BF=107.1)
.ENDS LM307

*====================================================
*LM318
*Sngl Precision HiSpeed OpAmp pkg:DIP8 3,2,7,4,6. pkg:CAN8 3,2,7,4,6.
.SUBCKT LM318 1 2 3 4 5
  C1   11 12 8.5E-12
  C2    6  7 25E-12
  DC    5 53 DX
  DE   54  5 DX
  DLP  90 91 DX
  DLN  92 90 DX
  DP    4  3 DX
  BGND 99  0 V=V(3)*.5 + V(4)*.5
  BB    7 99 I=I(VB)*1.697E6 - I(VC)*2E6 + I(VE)*2E6 +
+              I(VLP)*2E6 - I(VLN)*2E6
  GA    6  0 11 12 2.474E-3
  GCM   0  6 10 99 13.25E-9
  IEE  10  4 DC 1.75E-3
  HLIM 90  0 VLIM 1K
  Q1   11  2 13 QX
  Q2   12  1 14 QX
  R2    6  9 100E3
  RC1   3 11 424.4
  RC2   3 12 424.4
  RE1  13 10 394.7
  RE2  14 10 394.7
  REE  10 99 114.3E3
  RO1   8  5 50
  RO2   7 99 50
  RP    3  4 9.231E3
  VB    9  0 DC 0
  VC    3 53 DC 2.7
  VE   54  4 DC 2.7
  VLIM  7  8 DC 0
  VLP  91  0 DC 21
  VLN   0 92 DC 21
.MODEL DX D(IS=800E-18)
.MODEL QX NPN(IS=800E-18 BF=5.833E3)
.ENDS LM318

*====================================================
*LM324
*Quad LoPwr SnglSup OpAmp pkg:DIP14 (A:3,2,4,11,1)(B:5,6,4,11,7)(C:10,9,4,11,8)(D:12,13,4,11,14)
.SUBCKT LM324 1 2 3 4 5
  C1   11 12 5.544E-12
  C2    6  7 20E-12
  DC    5 53 DX
  DE   54  5 DX
  DLP  90 91 DX
  DLN  92 90 DX
  DP    4  3 DX
  BGND 99  0 V=V(3)*.5 + V(4)*.5
  BB    7 99 I=I(VB)*15.91E6 - I(VC)*20E6 + I(VE)*20E6 +
+              I(VLP)*20E6 - I(VLN)*20E6
  GA    6  0 11 12 125.7E-6
  GCM   0  6 10 99 7.067E-9
  IEE   3 10 DC 10.04E-6
  HLIM 90  0 VLIM 1K
  Q1   11  2 13 QX
  Q2   12  1 14 QX
  R2    6  9 100E3
  RC1   4 11 7.957E3
  RC2   4 12 7.957E3
  RE1  13 10 2.773E3
  RE2  14 10 2.773E3
  REE  10 99 19.92E6
  RO1   8  5 50
  RO2   7 99 50
  RP    3  4 30.31E3
  VB    9  0 DC 0
  VC    3 53 DC 2.1
  VE   54  4 DC .6
  VLIM  7  8 DC 0
  VLP  91  0 DC 40
  VLN   0 92 DC 40
.MODEL DX D(IS=800E-18)
.MODEL QX PNP(IS=800E-18 BF=250)
.ENDS LM324

*====================================================
*LM348
*Quad 741 OpAmp pkg:DIP14 (A:3,2,4,11,1)(B:5,6,4,11,7)(C:10,9,4,11,8)(D:12,13,4,11,14)
.SUBCKT LM348 1 2 3 4 5
  C1   11 12 9.461E-12
  C2    6  7 30E-12
  DC    5 53 DX
  DE   54  5 DX
  DLP  90 91 DX
  DLN  92 90 DX
  DP    4  3 DX
  BGND 99  0 V=V(3)*.5 + V(4)*.5
  BB    7 99 I=I(VB)*4.715E6 - I(VC)*5E6 + I(VE)*5E6 +
+              I(VLP)*5E6 - I(VLN)*5E6
  GA    6  0 11 12 256.2E-6
  GCM   0  6 10 99 4.023E-9
  IEE  10  4 DC 15.06E-6
  HLIM 90  0 VLIM 1K
  Q1   11  2 13 QX
  Q2   12  1 14 QX
  R2    6  9 100E3
  RC1   3 11 4.42E3
  RC2   3 12 4.42E3
  RE1  13 10 968
  RE2  14 10 968
  REE  10 99 13.28E6
  RO1   8  5 150
  RO2   7 99 150
  RP    3  4 51.28E3
  VB    9  0 DC 0
  VC    3 53 DC 3.6
  VE   54  4 DC 3.6
  VLIM  7  8 DC 0
  VLP  91  0 DC 25
  VLN   0 92 DC 25
.MODEL DX D(IS=800E-18)
.MODEL QX NPN(IS=800E-18 BF=250)
.ENDS LM348

*====================================================
*LM358
*Dual LoPwr, HiGain, SnglSup OpAmp pkg:DIP8 (A:3,2,8,4,1)(B:5,6,8,4,7)
.SUBCKT LM358   1 2 3 4 5
C1   11 12 5.544E-12
C2    6  7 20.00E-12
DC    5 53 DX
DE   54  5 DX
DLP  90 91 DX
DLN  92 90 DX
DP    4  3 DX
EGND 99  0 POLY(2) 3 0 4 0 0 .5 .5
FB    7 99 POLY(5) VB VC VE VLP VLN 0 15.91E6 -20E6 20E6 20E6 -20E6
GA    6  0 11 12 125.7E-6
GCM   0  6 10 99 7.067E-9
IEE   3 10 DC 10.04E-6
HLIM 90  0 VLIM 1K
Q1   11  2 13 QX
Q2   12  1 14 QX
R2    6  9 100.0E3
RC1   4 11 7.957E3
RC2   4 12 7.957E3
RE1  13 10 2.773E3
RE2  14 10 2.773E3
REE  10 99 19.92E6
RO1   8  5 50
RO2   7 99 50
RP    3  4 30.31E3
VB    9  0 DC 0
VC 3 53 DC 2.100
VE   54  4 DC .6
VLIM  7  8 DC 0
VLP  91  0 DC 40
VLN   0 92 DC 40
.MODEL DX D(IS=800.0E-18)
.MODEL QX PNP(IS=800.0E-18 BF=250)
.ENDS LM358
 
*====================================================
*LM2902
*Quad LoPwr SnglSup OpAmp pkg:DIP14 (A:3,2,4,11,1)(B:5,6,4,11,7)(C:10,9,4,11,8)(D:12,13,4,11,14)
.SUBCKT LM2902  1 2 3 4 5
C1   11 12 2.000E-12
C2    6  7 6.000E-12
CEE  10 99 388.6E-15
DC    5 53 DX
DE   54  5 DX
DLP  90 91 DX
DLN  92 90 DX
DP    4  3 DX
BEGND 99 0 V=0.5*V(3)+0.5*V(4)
BFB 7 99 I=4.823E+7*I(VB)-5E+7*I(VC)+5E+7*I(VE)+5E+7*I(VLP)-5E+7*I(VLN)
GA    6  0 11 12 41.47E-6
GCM   0  6 10 99 414.7E-12
IEE   3 10 DC 2.543E-6
HLIM 90  0 VLIM 1K
Q1   11  2 13 QX
Q2   12  1 14 QX
R2    6  9 100.0E3
RC1   4 11 24.11E3
RC2   4 12 24.11E3
RE1  13 10 3.043E3
RE2  14 10 3.043E3
REE  10 99 78.65E6
RO1   8  5 50
RO2   7 99 25
RP    3  4 37.62E3
VB    9  0 DC 0
VC    3 53 DC 1.800
VE   54  4 DC .88
VLIM  7  8 DC 0
VLP  91  0 DC 40
VLN   0 92 DC 40
.MODEL DX D(IS=800.0E-18)
.MODEL QX PNP(IS=800.0E-18 BF=32.03)
.ENDS LM2902

*====================================================
*LM3900 MCE-DM 2-22-95
*Quad SnglSup OpAmp pkg:DIP14 (A:1,6,14,7,5)(B:2,3,14,7,4)(C:13,8,14,7,9)(D:12,11,14,7,10)
.SUBCKT LM3900 4 3 7 10 9
Is1 9 10 1.3mA
Is2 7 5 200uA
Q1 7 5 9 NMOD
Q2 6 3 10 NMOD
Q3 3 4 10 NMOD
Q4 8 6 5 PMOD
Q5 10 6 8 PMOD
D1 4 0 DMOD
C1 10 6 0.01uF
.MODEL DMOD D(IS=800E-18)
.MODEL PMOD PNP(IS=800E-18 BF=250)
.MODEL NMOD NPN(IS=800E-18 BF=250)
.ENDS LM3900

*====================================================
*MC1458
*Dual 741 OpAmp pkg:DIP8 (A:3,2,8,4,1)(B:5,6,8,4,7)
.SUBCKT MC1458 1 2 3 4 5
  C1   11 12 4.664E-12
  C2    6  7 20E-12
  DC    5 53 DX
  DE   54  5 DX
  DLP  90 91 DX
  DLN  92 90 DX
  DP    4  3 DX
  BGND 99  0 V=V(3)*.5 + V(4)*.5
  BB    7 99 I=I(VB)*10.61E6 - I(VC)*10E6 + I(VE)*10E6 +
+              I(VLP)*10E6 - I(VLN)*10E6
  GA    6  0 11 12 137.7E-6
  GCM   0  6 10 99 2.574E-9
  IEE  10  4 DC 10.16E-6
  HLIM 90  0 VLIM 1K
  Q1   11  2 13 QX
  Q2   12  1 14 QX
  R2    6  9 100E3
  RC1   3 11 7.957E3
  RC2   3 12 7.957E3
  RE1  13 10 2.74E3
  RE2  14 10 2.74E3
  REE  10 99 19.69E6
  RO1   8  5 150
  RO2   7 99 150
  RP    3  4 18.11E3
  VB    9  0 DC 0
  VC    3 53 DC 2.6
  VE   54  4 DC 2.6
  VLIM  7  8 DC 0
  VLP  91  0 DC 25
  VLN   0 92 DC 25
.MODEL DX D(IS=800E-18)
.MODEL QX NPN(IS=800E-18 BF=62.5)
.ENDS MC1458

*====================================================
*MC3403
*Quad LoPwr SnglSup OpAmp pkg:DIP14 (A:3,2,4,11,1)(B:5,6,4,11,7)(C:10,9,4,11,8)(D:12,13,4,11,14)
.SUBCKT MC3403 1 2 3 4 5
  C1   11 12 7.544E-12
  C2    6  7 20E-12
  DC    5 53 DX
  DE   54  5 DX
  DLP  90 91 DX
  DLN  92 90 DX
  DP    4  3 DX
  BGND 99  0 V=V(3)*.5 + V(4)*.5
  BB    7 99 I=I(VB)*42.44E6 - I(VC)*40E6 + I(VE)*40E6 +
+              I(VLP)*40E6 - I(VLN)*40E6
  GA    6  0 11 12 130.7E-6
  GCM   0  6 10 99 2.235E-9
  IEE   3 10 DC 12.4E-6
  HLIM 90  0 VLIM 1K
  Q1   11  2 13 QX
  Q2   12  1 14 QX
  R2    6  9 100E3
  RC1   4 11 7.957E3
  RC2   4 12 7.957E3
  RE1  13 10 3.529E3
  RE2  14 10 3.529E3
  REE  10 99 16.13E6
  RO1   8  5 37.5
  RO2   7 99 37.5
  RP    3  4 43.62E3
  VB    9  0 DC 0
  VC    3 53 DC 2.6
  VE   54  4 DC 2.6
  VLIM  7  8 DC 0
  VLP  91  0 DC 30
  VLN   0 92 DC 30
.MODEL DX D(IS=800E-18)
.MODEL QX PNP(IS=800E-18 BF=30)
.ENDS MC3403

*====================================================
*uA741
*Sngl GenPurpose OpAmp pkg:DIP8 3,2,7,4,6. pkg:CAN8 3,2,7,4,6.
.SUBCKT UA741 1 2 3 4 5
  C1   11 12 4.664E-12
  C2    6  7 20E-12
  DC    5 53 DX
  DE   54  5 DX
  DLP  90 91 DX
  DLN  92 90 DX
  DP    4  3 DX
  BGND 99  0 V=V(3)*.5 + V(4)*.5
  BB    7 99 I=I(VB)*10.61E6 - I(VC)*10E6 + I(VE)*10E6 +
+              I(VLP)*10E6 - I(VLN)*10E6
  GA    6  0 11 12 137.7E-6
  GCM   0  6 10 99 2.574E-9
  IEE  10  4 DC 10.16E-6
  HLIM 90  0 VLIM 1K
  Q1   11  2 13 QX
  Q2   12  1 14 QX
  R2    6  9 100E3
  RC1   3 11 7.957E3
  RC2   3 12 7.957E3
  RE1  13 10 2.74E3
  RE2  14 10 2.74E3
  REE  10 99 19.69E6
  RO1   8  5 150
  RO2   7 99 150
  RP    3  4 18.11E3
  VB    9  0 DC 0
  VC    3 53 DC 2.6
  VE   54  4 DC 2.6
  VLIM  7  8 DC 0
  VLP  91  0 DC 25
  VLN   0 92 DC 25
.MODEL DX D(IS=800E-18)
.MODEL QX NPN(IS=800E-18 BF=62.5)
.ENDS UA741

*====================================================
*uA747
*Dual GenPurpose OpAmp pkg:DIP14 (A:2,1,13,4,12)(B:6,7,9,4,10)
.SUBCKT UA747 1 2 3 4 5
  C1   11 12 4.664E-12
  C2    6  7 20E-12
  DC    5 53 DX
  DE   54  5 DX
  DLP  90 91 DX
  DLN  92 90 DX
  DP    4  3 DX
  BGND 99  0 V=V(3)*.5 + V(4)*.5
  BB    7 99 I=I(VB)*10.61E6 - I(VC)*10E6 + I(VE)*10E6 +
+              I(VLP)*10E6 - I(VLN)*10E6
  GA    6  0 11 12 137.7E-6
  GCM   0  6 10 99 2.574E-9
  IEE  10  4 DC 10.16E-6
  HLIM 90  0 VLIM 1K
  Q1   11  2 13 QX
  Q2   12  1 14 QX
  R2    6  9 100E3
  RC1   3 11 7.957E3
  RC2   3 12 7.957E3
  RE1  13 10 2.74E3
  RE2  14 10 2.74E3
  REE  10 99 19.69E6
  RO1   8  5 150
  RO2   7 99 150
  RP    3  4 18.11E3
  VB    9  0 DC 0
  VC    3 53 DC 2.6
  VE   54  4 DC 2.6
  VLIM  7  8 DC 0
  VLP  91  0 DC 25
  VLN   0 92 DC 25
.MODEL DX D(IS=800E-18)
.MODEL QX NPN(IS=800E-18 BF=62.5)
.ENDS UA747

*====================================================
* LF155
* Linear Technology LF155 op amp model  
* Written: 05-10-1990 18:16:50 Type: PFET input, internal comp.
* Typical specs: 
* Vos=2.0E-03, Ib=3.0E-11, Ios=3.0E-12, GBP=2.5E+06Hz, Phase mar.= 45 deg, 
* SR(low)=7.0E+00V/us, SR(high)=1.4E+01V/us, Av=106.0dB, CMRR=100.0dB, 
* Vsat(+)=2.0V, Vsat(-)=2.0V, Isc=+/-25mA, Rout= 100ohms, Iq= 2mA.
* (input cm clamp *optional*)
* 
* Connections: + - V+V-O 
*LTC Sngl JFETin LoSupCurrent OpAmp pkg:DIP8 3,2,7,4,6
.SUBCKT LF155 3 2 7 4 6 
* INPUT
VCM2 40 4 2.0000E+00
RD1 40 80 2.1221E+03
RD2 40 90 2.1221E+03
J1 80 102 12 JM1 
J2 90 103 12 JM2 
CIN 2 3 4.0000E-12
RG1 2 102 2.0000E+00
RG2 3 103 2.0000E+00
** CM CLAMP 
* DCM1 107 103 DM4 
* DCM2 105 107 DM4 
* VCMC 105 4 4.0E+00
* ECMP 106 4 103 4 1 
* RCMP 107 106 1E+04
* DCM3 109 102 DM4 
* DCM4 105 109 DM4 
* ECMN 108 4 102 4 1 
* RCMN 109 108 1E+04
** END CM CLAMP 
C1 80 90 1.5000E-11
ISS 7 12 2.8000E-04
GOSIT 7 12 90 80 1.4000E-04
* INTERMEDIATE 
GCM 0 8 12 0 4.7124E-09
GA 8 0 80 90 4.7124E-04
R2 8 0 1.0000E+05
C2 1 8 3.0000E-11
GB 1 0 8 0 4.2768E+01
RO2 1 0 9.9000E+01
* OUTPUT 
RSO 1 6 1.0000E+00
ECL 18 0 1 6 2.0124E+01
GCL 0 8 20 0 1.0000E+00
RCL 20 0 1.0000E+03
D1 18 20 DM1 
D2 20 18 DM1 
* 
D3A 131 70 DM3 
D3B 13 131 DM3 
GPL 0 8 70 7 1.0000E+00
VC 13 6 3.1403E+00
RPLA 7 70 1.0000E+04
RPLB 7 131 1.0000E+05
D4A 60 141 DM3 
D4B 141 14 DM3 
GNL 0 8 60 4 1.0000E+00
VE 6 14 3.1403E+00
RNLA 60 4 1.0000E+04
RNLB 141 4 1.0000E+05
* 
IP 7 4 1.7200E-03
DSUB 4 7 DM2 
* MODELS 
.MODEL JM1 PJF (IS=3.1500E-11 BETA=3.9655E-04 VTO=-1.000000E+00)
.MODEL JM2 PJF (IS=2.8500E-11 BETA=3.9655E-04 VTO=-9.980000E-01)
.MODEL DM1 D (IS=1.0000E-15)
.MODEL DM2 D (IS=8.0000E-16 BV=5.2800E+01)
.MODEL DM3 D (IS=1.0000E-16)
.MODEL DM4 D (IS=1.0000E-09)
.ENDS LF155
* 
* - - - - - * FINI LF155 * - - - - - * [OAMM VJ02 05/08/90]

*====================================================
* LF155A
* Linear Technology LF155A op amp model  
* Written: 05-10-1990 18:19:48 Type: PFET input, internal comp.
* Typical specs: 
* Vos=1.0E-03, Ib=3.0E-11, Ios=3.0E-12, GBP=2.5E+06Hz, Phase mar.= 45 deg, 
* SR(low)=7.0E+00V/us, SR(high)=1.4E+01V/us, Av=106.0dB, CMRR=100.0dB, 
* Vsat(+)=2.0V, Vsat(-)=2.0V, Isc=+/-25mA, Rout= 100ohms, Iq= 2mA.
* (input cm clamp *optional*)
* 
* Connections: + - V+V-O 
*LTC Sngl JFETin LoSupCurrent OpAmp pkg:DIP8 3,2,7,4,6
.SUBCKT LF155A 3 2 7 4 6 
* INPUT
VCM2 40 4 2.0000E+00
RD1 40 80 2.1221E+03
RD2 40 90 2.1221E+03
J1 80 102 12 JM1 
J2 90 103 12 JM2 
CIN 2 3 4.0000E-12
RG1 2 102 2.0000E+00
RG2 3 103 2.0000E+00
** CM CLAMP 
* DCM1 107 103 DM4 
* DCM2 105 107 DM4 
* VCMC 105 4 4.0E+00
* ECMP 106 4 103 4 1 
* RCMP 107 106 1E+04
* DCM3 109 102 DM4 
* DCM4 105 109 DM4 
* ECMN 108 4 102 4 1 
* RCMN 109 108 1E+04
** END CM CLAMP 
C1 80 90 1.5000E-11
ISS 7 12 2.8000E-04
GOSIT 7 12 90 80 1.4000E-04
* INTERMEDIATE 
GCM 0 8 12 0 4.7124E-09
GA 8 0 80 90 4.7124E-04
R2 8 0 1.0000E+05
C2 1 8 3.0000E-11
GB 1 0 8 0 4.2768E+01
RO2 1 0 9.9000E+01
* OUTPUT 
RSO 1 6 1.0000E+00
ECL 18 0 1 6 2.0124E+01
GCL 0 8 20 0 1.0000E+00
RCL 20 0 1.0000E+03
D1 18 20 DM1 
D2 20 18 DM1 
* 
D3A 131 70 DM3 
D3B 13 131 DM3 
GPL 0 8 70 7 1.0000E+00
VC 13 6 3.1403E+00
RPLA 7 70 1.0000E+04
RPLB 7 131 1.0000E+05
D4A 60 141 DM3 
D4B 141 14 DM3 
GNL 0 8 60 4 1.0000E+00
VE 6 14 3.1403E+00
RNLA 60 4 1.0000E+04
RNLB 141 4 1.0000E+05
* 
IP 7 4 1.7200E-03
DSUB 4 7 DM2 
* MODELS 
.MODEL JM1 PJF (IS=3.1500E-11 BETA=3.9655E-04 VTO=-1.000000E+00)
.MODEL JM2 PJF (IS=2.8500E-11 BETA=3.9655E-04 VTO=-9.990000E-01)
.MODEL DM1 D (IS=1.0000E-15)
.MODEL DM2 D (IS=8.0000E-16 BV=5.2800E+01)
.MODEL DM3 D (IS=1.0000E-16)
.MODEL DM4 D (IS=1.0000E-09)
.ENDS LF155A
* 
* - - - - - * FINI LF155A * - - - - - * [OAMM VJ02 05/08/90]

*====================================================
* LF156
* Linear Technology LF156 op amp model  
* Written: 05-10-1990 18:26:49 Type: PFET input, internal comp.
* Typical specs: 
* Vos=2.0E-03, Ib=3.0E-11, Ios=3.0E-12, GBP=5.0E+06Hz, Phase mar.= 45 deg, 
* SR(low)=1.2E+01V/us, SR(high)=2.4E+01V/us, Av=106.0dB, CMRR=100.0dB, 
* Vsat(+)=2.0V, Vsat(-)=2.0V, Isc=+/-25mA, Rout=  75ohms, Iq= 5mA.
* (input cm clamp *optional*)
* 
* Connections: + - V+V-O 
*LTC Sngl JFETin HiSpeed OpAmp pkg:DIP8 3,2,7,4,6
.SUBCKT LF156 3 2 7 4 6 
* INPUT
VCM2 40 4 2.0000E+00
RD1 40 80 1.0610E+03
RD2 40 90 1.0610E+03
J1 80 102 12 JM1 
J2 90 103 12 JM2 
CIN 2 3 4.0000E-12
RG1 2 102 2.0000E+00
RG2 3 103 2.0000E+00
** CM CLAMP 
* DCM1 107 103 DM4 
* DCM2 105 107 DM4 
* VCMC 105 4 4.0E+00
* ECMP 106 4 103 4 1 
* RCMP 107 106 1E+04
* DCM3 109 102 DM4 
* DCM4 105 109 DM4 
* ECMN 108 4 102 4 1 
* RCMN 109 108 1E+04
** END CM CLAMP 
C1 80 90 1.5000E-11
ISS 7 12 4.8000E-04
GOSIT 7 12 90 80 2.4000E-04
* INTERMEDIATE 
GCM 0 8 12 0 9.4248E-09
GA 8 0 80 90 9.4248E-04
R2 8 0 1.0000E+05
C2 1 8 3.0000E-11
GB 1 0 8 0 2.8609E+01
RO2 1 0 7.4000E+01
* OUTPUT 
RSO 1 6 1.0000E+00
ECL 18 0 1 6 2.0690E+01
GCL 0 8 20 0 1.0000E+00
RCL 20 0 1.0000E+03
D1 18 20 DM1 
D2 20 18 DM1 
* 
D3A 131 70 DM3 
D3B 13 131 DM3 
GPL 0 8 70 7 1.0000E+00
VC 13 6 3.1552E+00
RPLA 7 70 1.0000E+04
RPLB 7 131 1.0000E+05
D4A 60 141 DM3 
D4B 141 14 DM3 
GNL 0 8 60 4 1.0000E+00
VE 6 14 3.1552E+00
RNLA 60 4 1.0000E+04
RNLB 141 4 1.0000E+05
* 
IP 7 4 4.5200E-03
DSUB 4 7 DM2 
* MODELS 
.MODEL JM1 PJF (IS=3.1500E-11 BETA=9.2528E-04 VTO=-1.000000E+00)
.MODEL JM2 PJF (IS=2.8500E-11 BETA=9.2528E-04 VTO=-9.980000E-01)
.MODEL DM1 D (IS=1.0000E-15)
.MODEL DM2 D (IS=8.0000E-16 BV=5.2800E+01)
.MODEL DM3 D (IS=1.0000E-16)
.MODEL DM4 D (IS=1.0000E-09)
.ENDS LF156
* 
* - - - - - * FINI LF156 * - - - - - * [OAMM VJ02 05/08/90]

*====================================================
* LT156A
* Linear Technology LF156A op amp model  
* Written: 05-10-1990 18:28:18 Type: PFET input, internal comp.
* Typical specs: 
* Vos=1.0E-03, Ib=3.0E-11, Ios=3.0E-12, GBP=5.0E+06Hz, Phase mar.= 45 deg, 
* SR(low)=1.2E+01V/us, SR(high)=2.4E+01V/us, Av=106.0dB, CMRR=100.0dB, 
* Vsat(+)=2.0V, Vsat(-)=2.0V, Isc=+/-25mA, Rout=  75ohms, Iq= 5mA.
* (input cm clamp *optional*)
* 
* Connections: + - V+V-O 
*LTC Sngl JFETin HiSpeed OpAmp pkg:DIP8 3,2,7,4,6
.SUBCKT LF156A 3 2 7 4 6 
* INPUT
VCM2 40 4 2.0000E+00
RD1 40 80 1.0610E+03
RD2 40 90 1.0610E+03
J1 80 102 12 JM1 
J2 90 103 12 JM2 
CIN 2 3 4.0000E-12
RG1 2 102 2.0000E+00
RG2 3 103 2.0000E+00
** CM CLAMP 
* DCM1 107 103 DM4 
* DCM2 105 107 DM4 
* VCMC 105 4 4.0E+00
* ECMP 106 4 103 4 1 
* RCMP 107 106 1E+04
* DCM3 109 102 DM4 
* DCM4 105 109 DM4 
* ECMN 108 4 102 4 1 
* RCMN 109 108 1E+04
** END CM CLAMP 
C1 80 90 1.5000E-11
ISS 7 12 4.8000E-04
GOSIT 7 12 90 80 2.4000E-04
* INTERMEDIATE 
GCM 0 8 12 0 9.4248E-09
GA 8 0 80 90 9.4248E-04
R2 8 0 1.0000E+05
C2 1 8 3.0000E-11
GB 1 0 8 0 2.8609E+01
RO2 1 0 7.4000E+01
* OUTPUT 
RSO 1 6 1.0000E+00
ECL 18 0 1 6 2.0690E+01
GCL 0 8 20 0 1.0000E+00
RCL 20 0 1.0000E+03
D1 18 20 DM1 
D2 20 18 DM1 
* 
D3A 131 70 DM3 
D3B 13 131 DM3 
GPL 0 8 70 7 1.0000E+00
VC 13 6 3.1552E+00
RPLA 7 70 1.0000E+04
RPLB 7 131 1.0000E+05
D4A 60 141 DM3 
D4B 141 14 DM3 
GNL 0 8 60 4 1.0000E+00
VE 6 14 3.1552E+00
RNLA 60 4 1.0000E+04
RNLB 141 4 1.0000E+05
* 
IP 7 4 4.5200E-03
DSUB 4 7 DM2 
* MODELS 
.MODEL JM1 PJF (IS=3.1500E-11 BETA=9.2528E-04 VTO=-1.000000E+00)
.MODEL JM2 PJF (IS=2.8500E-11 BETA=9.2528E-04 VTO=-9.990000E-01)
.MODEL DM1 D (IS=1.0000E-15)
.MODEL DM2 D (IS=8.0000E-16 BV=5.2800E+01)
.MODEL DM3 D (IS=1.0000E-16)
.MODEL DM4 D (IS=1.0000E-09)
.ENDS LF156A
* 
* - - - - - * FINI LF156A * - - - - - * [OAMM VJ02 05/08/90]

*====================================================
* LF355
* Linear Technology LF355 op amp model  
* Written: 05-10-1990 18:12:34 Type: PFET input, internal comp.
* Typical specs: 
* Vos=3.0E-03, Ib=3.0E-11, Ios=3.0E-12, GBP=2.5E+06Hz, Phase mar.= 45 deg, 
* SR(low)=6.0E+00V/us, SR(high)=1.2E+01V/us, Av=106.0dB, CMRR=100.0dB, 
* Vsat(+)=2.0V, Vsat(-)=2.0V, Isc=+/-25mA, Rout= 100ohms, Iq= 2mA.
* (input cm clamp *optional*)
* 
* Connections: + - V+V-O 
*LTC Sngl JFETin LoSupCurrent OpAmp pkg:DIP8 3,2,7,4,6
.SUBCKT LF355 3 2 7 4 6 
* INPUT
VCM2 40 4 2.0000E+00
RD1 40 80 2.1221E+03
RD2 40 90 2.1221E+03
J1 80 102 12 JM1 
J2 90 103 12 JM2 
CIN 2 3 4.0000E-12
RG1 2 102 2.0000E+00
RG2 3 103 2.0000E+00
** CM CLAMP 
* DCM1 107 103 DM4 
* DCM2 105 107 DM4 
* VCMC 105 4 4.0E+00
* ECMP 106 4 103 4 1 
* RCMP 107 106 1E+04
* DCM3 109 102 DM4 
* DCM4 105 109 DM4 
* ECMN 108 4 102 4 1 
* RCMN 109 108 1E+04
** END CM CLAMP 
C1 80 90 1.5000E-11
ISS 7 12 2.4000E-04
GOSIT 7 12 90 80 1.2000E-04
* INTERMEDIATE 
GCM 0 8 12 0 4.7124E-09
GA 8 0 80 90 4.7124E-04
R2 8 0 1.0000E+05
C2 1 8 3.0000E-11
GB 1 0 8 0 4.2768E+01
RO2 1 0 9.9000E+01
* OUTPUT 
RSO 1 6 1.0000E+00
ECL 18 0 1 6 1.9963E+01
GCL 0 8 20 0 1.0000E+00
RCL 20 0 1.0000E+03
D1 18 20 DM1 
D2 20 18 DM1 
* 
D3A 131 70 DM3 
D3B 13 131 DM3 
GPL 0 8 70 7 1.0000E+00
VC 13 6 3.1360E+00
RPLA 7 70 1.0000E+04
RPLB 7 131 1.0000E+05
D4A 60 141 DM3 
D4B 141 14 DM3 
GNL 0 8 60 4 1.0000E+00
VE 6 14 3.1360E+00
RNLA 60 4 1.0000E+04
RNLB 141 4 1.0000E+05
* 
IP 7 4 1.7600E-03
DSUB 4 7 DM2 
* MODELS 
.MODEL JM1 PJF (IS=3.1500E-11 BETA=4.6264E-04 VTO=-1.000000E+00)
.MODEL JM2 PJF (IS=2.8500E-11 BETA=4.6264E-04 VTO=-9.970000E-01)
.MODEL DM1 D (IS=1.0000E-15)
.MODEL DM2 D (IS=8.0000E-16 BV=4.3200E+01)
.MODEL DM3 D (IS=1.0000E-16)
.MODEL DM4 D (IS=1.0000E-09)
.ENDS LF355
* 
* - - - - - * FINI LF355 * - - - - - * [OAMM VJ02 05/08/90]

*====================================================
* LF355A
* Linear Technology LF355A op amp model  
* Written: 05-10-1990 18:14:53 Type: PFET input, internal comp.
* Typical specs: 
* Vos=1.0E-03, Ib=3.0E-11, Ios=3.0E-12, GBP=2.5E+06Hz, Phase mar.= 45 deg, 
* SR(low)=7.0E+00V/us, SR(high)=1.4E+01V/us, Av=106.0dB, CMRR=100.0dB, 
* Vsat(+)=2.0V, Vsat(-)=2.0V, Isc=+/-25mA, Rout= 100ohms, Iq= 2mA.
* (input cm clamp *optional*)
* 
* Connections: + - V+V-O 
*LTC Sngl JFETin LoSupCurrent OpAmp pkg:DIP8 3,2,7,4,6
.SUBCKT LF355A 3 2 7 4 6 
* INPUT
VCM2 40 4 2.0000E+00
RD1 40 80 2.1221E+03
RD2 40 90 2.1221E+03
J1 80 102 12 JM1 
J2 90 103 12 JM2 
CIN 2 3 4.0000E-12
RG1 2 102 2.0000E+00
RG2 3 103 2.0000E+00
** CM CLAMP 
* DCM1 107 103 DM4 
* DCM2 105 107 DM4 
* VCMC 105 4 4.0E+00
* ECMP 106 4 103 4 1 
* RCMP 107 106 1E+04
* DCM3 109 102 DM4 
* DCM4 105 109 DM4 
* ECMN 108 4 102 4 1 
* RCMN 109 108 1E+04
** END CM CLAMP 
C1 80 90 1.5000E-11
ISS 7 12 2.8000E-04
GOSIT 7 12 90 80 1.4000E-04
* INTERMEDIATE 
GCM 0 8 12 0 4.7124E-09
GA 8 0 80 90 4.7124E-04
R2 8 0 1.0000E+05
C2 1 8 3.0000E-11
GB 1 0 8 0 4.2768E+01
RO2 1 0 9.9000E+01
* OUTPUT 
RSO 1 6 1.0000E+00
ECL 18 0 1 6 2.0124E+01
GCL 0 8 20 0 1.0000E+00
RCL 20 0 1.0000E+03
D1 18 20 DM1 
D2 20 18 DM1 
* 
D3A 131 70 DM3 
D3B 13 131 DM3 
GPL 0 8 70 7 1.0000E+00
VC 13 6 3.1403E+00
RPLA 7 70 1.0000E+04
RPLB 7 131 1.0000E+05
D4A 60 141 DM3 
D4B 141 14 DM3 
GNL 0 8 60 4 1.0000E+00
VE 6 14 3.1403E+00
RNLA 60 4 1.0000E+04
RNLB 141 4 1.0000E+05
* 
IP 7 4 1.7200E-03
DSUB 4 7 DM2 
* MODELS 
.MODEL JM1 PJF (IS=3.1500E-11 BETA=3.9655E-04 VTO=-1.000000E+00)
.MODEL JM2 PJF (IS=2.8500E-11 BETA=3.9655E-04 VTO=-9.990000E-01)
.MODEL DM1 D (IS=1.0000E-15)
.MODEL DM2 D (IS=8.0000E-16 BV=5.2800E+01)
.MODEL DM3 D (IS=1.0000E-16)
.MODEL DM4 D (IS=1.0000E-09)
.ENDS LF355A
* 
* - - - - - * FINI LF355A * - - - - - * [OAMM VJ02 05/08/90]

*====================================================
* LF356
* Linear Technology LF356 op amp model  
* Written: 05-10-1990 18:23:43 Type: PFET input, internal comp.
* Typical specs: 
* Vos=3.0E-03, Ib=3.0E-11, Ios=3.0E-12, GBP=5.0E+06Hz, Phase mar.= 45 deg, 
* SR(low)=1.2E+01V/us, SR(high)=2.4E+01V/us, Av=106.0dB, CMRR=100.0dB, 
* Vsat(+)=2.0V, Vsat(-)=2.0V, Isc=+/-25mA, Rout=  75ohms, Iq= 5mA.
* (input cm clamp *optional*)
* 
* Connections: + - V+V-O 
*LTC Sngl JFETin HiSpeed OpAmp pkg:DIP8 3,2,7,4,6
.SUBCKT LF356 3 2 7 4 6 
* INPUT
VCM2 40 4 2.0000E+00
RD1 40 80 1.0610E+03
RD2 40 90 1.0610E+03
J1 80 102 12 JM1 
J2 90 103 12 JM2 
CIN 2 3 4.0000E-12
RG1 2 102 2.0000E+00
RG2 3 103 2.0000E+00
** CM CLAMP 
* DCM1 107 103 DM4 
* DCM2 105 107 DM4 
* VCMC 105 4 4.0E+00
* ECMP 106 4 103 4 1 
* RCMP 107 106 1E+04
* DCM3 109 102 DM4 
* DCM4 105 109 DM4 
* ECMN 108 4 102 4 1 
* RCMN 109 108 1E+04
** END CM CLAMP 
C1 80 90 1.5000E-11
ISS 7 12 4.8000E-04
GOSIT 7 12 90 80 2.4000E-04
* INTERMEDIATE 
GCM 0 8 12 0 9.4248E-09
GA 8 0 80 90 9.4248E-04
R2 8 0 1.0000E+05
C2 1 8 3.0000E-11
GB 1 0 8 0 2.8609E+01
RO2 1 0 7.4000E+01
* OUTPUT 
RSO 1 6 1.0000E+00
ECL 18 0 1 6 2.0690E+01
GCL 0 8 20 0 1.0000E+00
RCL 20 0 1.0000E+03
D1 18 20 DM1 
D2 20 18 DM1 
* 
D3A 131 70 DM3 
D3B 13 131 DM3 
GPL 0 8 70 7 1.0000E+00
VC 13 6 3.1552E+00
RPLA 7 70 1.0000E+04
RPLB 7 131 1.0000E+05
D4A 60 141 DM3 
D4B 141 14 DM3 
GNL 0 8 60 4 1.0000E+00
VE 6 14 3.1552E+00
RNLA 60 4 1.0000E+04
RNLB 141 4 1.0000E+05
* 
IP 7 4 4.5200E-03
DSUB 4 7 DM2 
* MODELS 
.MODEL JM1 PJF (IS=3.1500E-11 BETA=9.2528E-04 VTO=-1.000000E+00)
.MODEL JM2 PJF (IS=2.8500E-11 BETA=9.2528E-04 VTO=-9.970000E-01)
.MODEL DM1 D (IS=1.0000E-15)
.MODEL DM2 D (IS=8.0000E-16 BV=4.3200E+01)
.MODEL DM3 D (IS=1.0000E-16)
.MODEL DM4 D (IS=1.0000E-09)
.ENDS LF356
* 
* - - - - - * FINI LF356 * - - - - - * [OAMM VJ02 05/08/90]

*====================================================
* LF356A
* Linear Technology LF356A op amp model  
* Written: 05-10-1990 18:25:11 Type: PFET input, internal comp.
* Typical specs: 
* Vos=1.0E-03, Ib=3.0E-11, Ios=3.0E-12, GBP=5.0E+06Hz, Phase mar.= 45 deg, 
* SR(low)=1.2E+01V/us, SR(high)=2.4E+01V/us, Av=106.0dB, CMRR=100.0dB, 
* Vsat(+)=2.0V, Vsat(-)=2.0V, Isc=+/-25mA, Rout=  75ohms, Iq= 5mA.
* (input cm clamp *optional*)
* 
* Connections: + - V+V-O 
*LTC Sngl JFETin HiSpeed OpAmp pkg:DIP8 3,2,7,4,6
.SUBCKT LF356A 3 2 7 4 6 
* INPUT
VCM2 40 4 2.0000E+00
RD1 40 80 1.0610E+03
RD2 40 90 1.0610E+03
J1 80 102 12 JM1 
J2 90 103 12 JM2 
CIN 2 3 4.0000E-12
RG1 2 102 2.0000E+00
RG2 3 103 2.0000E+00
** CM CLAMP 
* DCM1 107 103 DM4 
* DCM2 105 107 DM4 
* VCMC 105 4 4.0E+00
* ECMP 106 4 103 4 1 
* RCMP 107 106 1E+04
* DCM3 109 102 DM4 
* DCM4 105 109 DM4 
* ECMN 108 4 102 4 1 
* RCMN 109 108 1E+04
** END CM CLAMP 
C1 80 90 1.5000E-11
ISS 7 12 4.8000E-04
GOSIT 7 12 90 80 2.4000E-04
* INTERMEDIATE 
GCM 0 8 12 0 9.4248E-09
GA 8 0 80 90 9.4248E-04
R2 8 0 1.0000E+05
C2 1 8 3.0000E-11
GB 1 0 8 0 2.8609E+01
RO2 1 0 7.4000E+01
* OUTPUT 
RSO 1 6 1.0000E+00
ECL 18 0 1 6 2.0690E+01
GCL 0 8 20 0 1.0000E+00
RCL 20 0 1.0000E+03
D1 18 20 DM1 
D2 20 18 DM1 
* 
D3A 131 70 DM3 
D3B 13 131 DM3 
GPL 0 8 70 7 1.0000E+00
VC 13 6 3.1552E+00
RPLA 7 70 1.0000E+04
RPLB 7 131 1.0000E+05